CHEMBL2386595
     RDKit          3D

 70 74  0  0  0  0  0  0  0  0999 V2000
    6.0126   -0.4175   -7.7349 H   0  0  0  0  0  0  0  0  0  0  0  0
    5.3876    0.3347   -7.2725 C   0  0  0  0  0  0  0  0  0  0  0  0
    4.5927   -0.0002   -6.2237 N   0  0  0  0  0  0  0  0  0  0  0  0
    3.7890    0.9117   -5.6138 C   0  0  0  0  0  0  0  0  0  0  0  0
    3.1759    0.5934   -4.7808 H   0  0  0  0  0  0  0  0  0  0  0  0
    3.7690    2.2483   -6.0507 C   0  0  0  0  0  0  0  0  0  0  0  0
    2.8780    3.2342   -5.3890 C   0  0  0  0  0  0  0  0  0  0  0  0
    1.7360    2.8009   -4.7887 N   0  0  0  0  0  0  0  0  0  0  0  0
    0.8673    3.6609   -4.1875 C   0  0  0  0  0  0  0  0  0  0  0  0
   -0.2292    3.2254   -3.6370 N   0  0  0  0  0  0  0  0  0  0  0  0
   -0.6790    1.8603   -3.6480 C   0  0  0  0  0  0  0  0  0  0  0  0
   -0.9421    1.2404   -2.4189 C   0  0  0  0  0  0  0  0  0  0  0  0
   -0.7625    1.7896   -1.5037 H   0  0  0  0  0  0  0  0  0  0  0  0
   -1.3954   -0.0887   -2.3657 C   0  0  0  0  0  0  0  0  0  0  0  0
   -1.6700   -0.7386   -1.1124 N   0  0  0  0  0  0  0  0  0  0  0  0
   -1.5929   -1.7799   -1.0849 H   0  0  0  0  0  0  0  0  0  0  0  0
   -2.2902   -0.0798    0.0074 C   0  0  0  0  0  0  0  0  0  0  0  0
   -2.7968    1.0663   -0.1398 O   0  0  0  0  0  0  0  0  0  0  0  0
   -2.4013   -0.7578    1.3220 C   0  0  0  0  0  0  0  0  0  0  0  0
   -1.5230   -1.7967    1.6788 C   0  0  0  0  0  0  0  0  0  0  0  0
   -0.7273   -2.1062    1.0141 H   0  0  0  0  0  0  0  0  0  0  0  0
   -1.6497   -2.4394    2.9135 C   0  0  0  0  0  0  0  0  0  0  0  0
   -0.9629   -3.2360    3.1695 H   0  0  0  0  0  0  0  0  0  0  0  0
   -2.6524   -2.0558    3.8154 C   0  0  0  0  0  0  0  0  0  0  0  0
   -2.7707   -2.7449    5.1561 C   0  0  0  0  0  0  0  0  0  0  0  0
   -3.7856   -2.5890    5.5888 H   0  0  0  0  0  0  0  0  0  0  0  0
   -2.6759   -3.8409    4.9789 H   0  0  0  0  0  0  0  0  0  0  0  0
   -1.7240   -2.2890    6.1017 N   0  0  1  0  0  0  0  0  0  0  0  0
   -0.7977   -2.4173    5.6304 H   0  0  0  0  0  0  0  0  0  0  0  0
   -1.8933   -0.8528    6.4517 C   0  0  0  0  0  0  0  0  0  0  0  0
   -1.3367   -0.2281    5.7174 H   0  0  0  0  0  0  0  0  0  0  0  0
   -2.9602   -0.5429    6.3881 H   0  0  0  0  0  0  0  0  0  0  0  0
   -1.3996   -0.5001    7.8743 C   0  0  0  0  0  0  0  0  0  0  0  0
   -1.1412    0.5826    7.9204 H   0  0  0  0  0  0  0  0  0  0  0  0
   -2.2422   -0.6453    8.5886 H   0  0  0  0  0  0  0  0  0  0  0  0
   -0.2565   -1.3304    8.3090 N   0  0  2  0  0  0  0  0  0  0  0  0
   -0.0882   -1.1041    9.3187 H   0  0  0  0  0  0  0  0  0  0  0  0
    0.9809   -0.9560    7.5972 C   0  0  0  0  0  0  0  0  0  0  0  0
    1.1950    0.1290    7.7244 H   0  0  0  0  0  0  0  0  0  0  0  0
    1.8484   -1.5121    8.0178 H   0  0  0  0  0  0  0  0  0  0  0  0
    0.9149   -1.1814    6.5122 H   0  0  0  0  0  0  0  0  0  0  0  0
   -0.5335   -2.7910    8.2187 C   0  0  0  0  0  0  0  0  0  0  0  0
    0.3563   -3.3488    7.8501 H   0  0  0  0  0  0  0  0  0  0  0  0
   -0.7467   -3.1987    9.2311 H   0  0  0  0  0  0  0  0  0  0  0  0
   -1.7279   -3.1374    7.3077 C   0  0  0  0  0  0  0  0  0  0  0  0
   -2.6789   -3.0046    7.8721 H   0  0  0  0  0  0  0  0  0  0  0  0
   -1.6525   -4.2137    7.0329 H   0  0  0  0  0  0  0  0  0  0  0  0
   -3.5202   -1.0087    3.4712 C   0  0  0  0  0  0  0  0  0  0  0  0
   -4.2981   -0.6922    4.1562 H   0  0  0  0  0  0  0  0  0  0  0  0
   -3.3953   -0.3646    2.2373 C   0  0  0  0  0  0  0  0  0  0  0  0
   -4.0861    0.4329    1.9933 H   0  0  0  0  0  0  0  0  0  0  0  0
   -1.5442   -0.8072   -3.5573 C   0  0  0  0  0  0  0  0  0  0  0  0
   -1.8669   -1.8407   -3.5334 H   0  0  0  0  0  0  0  0  0  0  0  0
   -1.3219   -0.1896   -4.7885 C   0  0  0  0  0  0  0  0  0  0  0  0
   -1.4823   -0.7565   -5.6972 H   0  0  0  0  0  0  0  0  0  0  0  0
   -0.9293    1.1560   -4.8527 C   0  0  0  0  0  0  0  0  0  0  0  0
   -0.7931    1.8014   -6.2069 C   0  0  0  0  0  0  0  0  0  0  0  0
   -1.5441    1.3862   -6.9128 H   0  0  0  0  0  0  0  0  0  0  0  0
    0.2180    1.6039   -6.6183 H   0  0  0  0  0  0  0  0  0  0  0  0
   -0.9676    2.8956   -6.1514 H   0  0  0  0  0  0  0  0  0  0  0  0
    1.1560    4.9905   -4.1514 N   0  0  0  0  0  0  0  0  0  0  0  0
    0.5021    5.6576   -3.6825 H   0  0  0  0  0  0  0  0  0  0  0  0
    2.2909    5.4718   -4.7254 C   0  0  0  0  0  0  0  0  0  0  0  0
    2.5089    6.5314   -4.6877 H   0  0  0  0  0  0  0  0  0  0  0  0
    3.1788    4.6042   -5.3596 C   0  0  0  0  0  0  0  0  0  0  0  0
    4.0879    4.9985   -5.7947 H   0  0  0  0  0  0  0  0  0  0  0  0
    4.5801    2.6011   -7.1448 C   0  0  0  0  0  0  0  0  0  0  0  0
    4.5710    3.6051   -7.5475 H   0  0  0  0  0  0  0  0  0  0  0  0
    5.3915    1.6434   -7.7552 C   0  0  0  0  0  0  0  0  0  0  0  0
    6.0141    1.9121   -8.5993 H   0  0  0  0  0  0  0  0  0  0  0  0
  1  2  1  0
  2  3  2  0
  3  4  1  0
  4  5  1  0
  4  6  2  0
  6  7  1  0
  7  8  2  0
  8  9  1  0
  9 10  2  0
 10 11  1  0
 11 12  2  0
 12 13  1  0
 12 14  1  0
 14 15  1  0
 15 16  1  0
 15 17  1  0
 17 18  2  0
 17 19  1  0
 19 20  2  0
 20 21  1  0
 20 22  1  0
 22 23  1  0
 22 24  2  0
 24 25  1  0
 25 26  1  0
 25 27  1  0
 25 28  1  0
 28 29  1  6
 28 30  1  0
 30 31  1  0
 30 32  1  0
 30 33  1  0
 33 34  1  0
 33 35  1  0
 33 36  1  0
 36 37  1  1
 36 38  1  0
 38 39  1  0
 38 40  1  0
 38 41  1  0
 36 42  1  0
 42 43  1  0
 42 44  1  0
 42 45  1  0
 45 46  1  0
 45 47  1  0
 24 48  1  0
 48 49  1  0
 48 50  2  0
 50 51  1  0
 14 52  2  0
 52 53  1  0
 52 54  1  0
 54 55  1  0
 54 56  2  0
 56 57  1  0
 57 58  1  0
 57 59  1  0
 57 60  1  0
  9 61  1  0
 61 62  1  0
 61 63  1  0
 63 64  1  0
 63 65  2  0
 65 66  1  0
  6 67  1  0
 67 68  1  0
 67 69  2  0
 69 70  1  0
 69  2  1  0
 65  7  1  0
 56 11  1  0
 50 19  1  0
 45 28  1  0
M  CHG  2  28   1  36   1
M  ISO  3  39   2  40   2  41   2
M  END
>  <UniqueID>  (1) 
1

>  <SMILES>  (1) 
[2H]C([2H])([2H])[NH+]1CC[NH+](Cc2ccc(C(=O)Nc3ccc(C)c(/N=c4\nc(-c5cccnc5)cc[nH]4)c3)cc2)CC1

>  <Energy>  (1) 
106.95024710809504

>  <Genealogy>  (1) 
[2H]C([2H])([2H])[NH+]1CC[NH+](Cc2ccc(C(=O)Nc3ccc(C)c(Nc4nccc(-c5cccnc5)n4)c3)cc2)CC1 (protonated)
[2H]C([2H])([2H])[NH+]1CC[NH+](Cc2ccc(C(=O)Nc3ccc(C)c(N=c4nc(-c5cccnc5)cc[nH]4)c3)cc2)CC1 (tautomer)
[2H]C([2H])([2H])[NH+]1CC[NH+](Cc2ccc(C(=O)Nc3ccc(C)c(/N=c4\nc(-c5cccnc5)cc[nH]4)c3)cc2)CC1 (cis-trans isomerization)
[2H]C([2H])([2H])[NH+]1CC[NH+](Cc2ccc(C(=O)Nc3ccc(C)c(/N=c4\nc(-c5cccnc5)cc[nH]4)c3)cc2)CC1 (3D coordinates assigned)
[2H]C([2H])([2H])[NH+]1CC[NH+](Cc2ccc(C(=O)Nc3ccc(C)c(/N=c4\nc(-c5cccnc5)cc[nH]4)c3)cc2)CC1 (nonaromatic ring conformer: 106.95024710809504 kcal/mol)

$$$$
CHEMBL2386595
     RDKit          3D

 70 74  0  0  0  0  0  0  0  0999 V2000
   -0.7896    1.6828   -5.0734 H   0  0  0  0  0  0  0  0  0  0  0  0
   -1.8298    1.4793   -4.7343 C   0  0  0  0  0  0  0  0  0  0  0  0
   -2.3725    2.4500   -4.7031 H   0  0  0  0  0  0  0  0  0  0  0  0
   -2.3222    0.8199   -5.4829 H   0  0  0  0  0  0  0  0  0  0  0  0
   -1.8152    0.8581   -3.4011 N   0  0  1  0  0  0  0  0  0  0  0  0
   -3.1958    0.6594   -2.9112 C   0  0  0  0  0  0  0  0  0  0  0  0
   -3.1896    0.0474   -1.4994 C   0  0  0  0  0  0  0  0  0  0  0  0
   -2.3761   -1.1867   -1.4572 N   0  0  2  0  0  0  0  0  0  0  0  0
   -2.3619   -1.8157   -0.1468 C   0  0  0  0  0  0  0  0  0  0  0  0
   -1.7883   -1.3450    0.9953 C   0  0  0  0  0  0  0  0  0  0  0  0
   -1.8345   -2.1693    2.1393 C   0  0  0  0  0  0  0  0  0  0  0  0
   -1.2292   -1.7858    3.3389 C   0  0  0  0  0  0  0  0  0  0  0  0
   -0.5584   -0.5536    3.4470 C   0  0  0  0  0  0  0  0  0  0  0  0
    0.0906   -0.2229    4.5898 C   0  0  0  0  0  0  0  0  0  0  0  0
    0.0226   -1.0627    5.7011 O   0  0  0  0  0  0  0  0  0  0  0  0
    0.8489    0.9912    4.7075 N   0  0  0  0  0  0  0  0  0  0  0  0
    2.2142    1.0966    4.2592 C   0  0  0  0  0  0  0  0  0  0  0  0
    3.1102    1.9333    4.9430 C   0  0  0  0  0  0  0  0  0  0  0  0
    4.4251    2.0811    4.4936 C   0  0  0  0  0  0  0  0  0  0  0  0
    4.8576    1.4295    3.3249 C   0  0  0  0  0  0  0  0  0  0  0  0
    6.2559    1.6411    2.8171 C   0  0  0  0  0  0  0  0  0  0  0  0
    3.9504    0.6248    2.6110 C   0  0  0  0  0  0  0  0  0  0  0  0
    4.3062    0.0509    1.3456 N   0  0  0  0  0  0  0  0  0  0  0  0
    3.5536    0.3533    0.1635 C   0  0  0  0  0  0  0  0  0  0  0  0
    2.7254    1.4321    0.1395 N   0  0  0  0  0  0  0  0  0  0  0  0
    2.0211    1.7485   -0.9725 C   0  0  0  0  0  0  0  0  0  0  0  0
    2.1413    0.9676   -2.1166 C   0  0  0  0  0  0  0  0  0  0  0  0
    2.9893   -0.1498   -2.0857 C   0  0  0  0  0  0  0  0  0  0  0  0
    3.0915   -1.0767   -3.2400 C   0  0  0  0  0  0  0  0  0  0  0  0
    2.8793   -0.6444   -4.5633 C   0  0  0  0  0  0  0  0  0  0  0  0
    2.9137   -1.5618   -5.6176 C   0  0  0  0  0  0  0  0  0  0  0  0
    3.1638   -2.9053   -5.3483 C   0  0  0  0  0  0  0  0  0  0  0  0
    3.3973   -3.3075   -4.0730 N   0  0  0  0  0  0  0  0  0  0  0  0
    3.3799   -2.4359   -3.0269 C   0  0  0  0  0  0  0  0  0  0  0  0
    3.6804   -0.4222   -0.9438 N   0  0  0  0  0  0  0  0  0  0  0  0
    2.6553    0.4306    3.1054 C   0  0  0  0  0  0  0  0  0  0  0  0
   -0.5690    0.3046    2.3291 C   0  0  0  0  0  0  0  0  0  0  0  0
   -1.1473   -0.0912    1.1189 C   0  0  0  0  0  0  0  0  0  0  0  0
   -1.0233   -1.0448   -2.0404 C   0  0  0  0  0  0  0  0  0  0  0  0
   -1.0989   -0.4314   -3.4446 C   0  0  0  0  0  0  0  0  0  0  0  0
   -1.3101    1.5088   -2.7528 H   0  0  0  0  0  0  0  0  0  0  0  0
   -3.7331    1.6342   -2.8692 H   0  0  0  0  0  0  0  0  0  0  0  0
   -3.7656   -0.0072   -3.6007 H   0  0  0  0  0  0  0  0  0  0  0  0
   -2.8336    0.8146   -0.7917 H   0  0  0  0  0  0  0  0  0  0  0  0
   -4.2391   -0.1893   -1.2126 H   0  0  0  0  0  0  0  0  0  0  0  0
   -2.8782   -1.8679   -2.0778 H   0  0  0  0  0  0  0  0  0  0  0  0
   -2.8416   -2.7903   -0.0926 H   0  0  0  0  0  0  0  0  0  0  0  0
   -2.3242   -3.1378    2.1084 H   0  0  0  0  0  0  0  0  0  0  0  0
   -1.2718   -2.4768    4.1732 H   0  0  0  0  0  0  0  0  0  0  0  0
    0.4978   -0.8263    6.5638 H   0  0  0  0  0  0  0  0  0  0  0  0
    0.5022    1.6920    5.4056 H   0  0  0  0  0  0  0  0  0  0  0  0
    2.7887    2.4682    5.8289 H   0  0  0  0  0  0  0  0  0  0  0  0
    5.0964    2.7285    5.0423 H   0  0  0  0  0  0  0  0  0  0  0  0
    6.7844    0.6649    2.7733 H   0  0  0  0  0  0  0  0  0  0  0  0
    6.8347    2.3172    3.4828 H   0  0  0  0  0  0  0  0  0  0  0  0
    6.2199    2.0892    1.8031 H   0  0  0  0  0  0  0  0  0  0  0  0
    5.1739   -0.5272    1.2651 H   0  0  0  0  0  0  0  0  0  0  0  0
    1.3682    2.6107   -0.9666 H   0  0  0  0  0  0  0  0  0  0  0  0
    1.5593    1.2209   -2.9919 H   0  0  0  0  0  0  0  0  0  0  0  0
    2.7011    0.3990   -4.7892 H   0  0  0  0  0  0  0  0  0  0  0  0
    2.7473   -1.2357   -6.6351 H   0  0  0  0  0  0  0  0  0  0  0  0
    3.1862   -3.6316   -6.1501 H   0  0  0  0  0  0  0  0  0  0  0  0
    3.5569   -2.8165   -2.0270 H   0  0  0  0  0  0  0  0  0  0  0  0
    1.9944   -0.2179    2.5540 H   0  0  0  0  0  0  0  0  0  0  0  0
   -0.0989    1.2796    2.3678 H   0  0  0  0  0  0  0  0  0  0  0  0
   -1.0617    0.6109    0.3101 H   0  0  0  0  0  0  0  0  0  0  0  0
   -0.3616   -0.4174   -1.4193 H   0  0  0  0  0  0  0  0  0  0  0  0
   -0.5376   -2.0430   -2.1133 H   0  0  0  0  0  0  0  0  0  0  0  0
   -1.6173   -1.1442   -4.1253 H   0  0  0  0  0  0  0  0  0  0  0  0
   -0.0669   -0.2908   -3.8333 H   0  0  0  0  0  0  0  0  0  0  0  0
  1  2  1  0
  2  3  1  0
  2  4  1  0
  2  5  1  0
  5  6  1  0
  6  7  1  0
  7  8  1  0
  8  9  1  0
  9 10  2  3
 10 11  1  0
 11 12  2  0
 12 13  1  0
 13 14  2  3
 14 15  1  0
 14 16  1  0
 16 17  1  0
 17 18  2  0
 18 19  1  0
 19 20  2  0
 20 21  1  0
 20 22  1  0
 22 23  1  0
 23 24  1  0
 24 25  2  0
 25 26  1  0
 26 27  2  0
 27 28  1  0
 28 29  1  0
 29 30  2  0
 30 31  1  0
 31 32  2  0
 32 33  1  0
 33 34  2  0
 28 35  2  0
 22 36  2  0
 13 37  1  0
 37 38  2  0
  8 39  1  0
 39 40  1  0
 40  5  1  0
 38 10  1  0
 36 17  1  0
 35 24  1  0
 34 29  1  0
  5 41  1  1
  6 42  1  0
  6 43  1  0
  7 44  1  0
  7 45  1  0
  8 46  1  6
  9 47  1  0
 11 48  1  0
 12 49  1  0
 15 50  1  0
 16 51  1  0
 18 52  1  0
 19 53  1  0
 21 54  1  0
 21 55  1  0
 21 56  1  0
 23 57  1  0
 26 58  1  0
 27 59  1  0
 30 60  1  0
 31 61  1  0
 32 62  1  0
 34 63  1  0
 36 64  1  0
 37 65  1  0
 38 66  1  0
 39 67  1  0
 39 68  1  0
 40 69  1  0
 40 70  1  0
M  CHG  2   5   1   8   1
M  ISO  3   1   2   3   2   4   2
M  END
>  <UniqueID>  (2) 
2

>  <SMILES>  (2) 
[2H]C([2H])([2H])[NH+]1CC[NH+](C=c2ccc(=C(O)Nc3ccc(C)c(Nc4nccc(-c5cccnc5)n4)c3)cc2)CC1

>  <Energy>  (2) 
107.06582072767677

>  <Genealogy>  (2) 
[2H]C([2H])([2H])[NH+]1CC[NH+](Cc2ccc(C(=O)Nc3ccc(C)c(Nc4nccc(-c5cccnc5)n4)c3)cc2)CC1 (protonated)
[2H]C([2H])([2H])[NH+]1CC[NH+](C=c2ccc(=C(O)Nc3ccc(C)c(Nc4nccc(-c5cccnc5)n4)c3)cc2)CC1 (tautomer)
[2H]C([2H])([2H])[NH+]1CC[NH+](C=c2ccc(=C(O)Nc3ccc(C)c(Nc4nccc(-c5cccnc5)n4)c3)cc2)CC1 (3D coordinates assigned)
[2H]C([2H])([2H])[NH+]1CC[NH+](C=c2ccc(=C(O)Nc3ccc(C)c(Nc4nccc(-c5cccnc5)n4)c3)cc2)CC1 (nonaromatic ring conformer: 107.06582072767677 kcal/mol)

$$$$
CHEMBL2386595
     RDKit          3D

 70 74  0  0  0  0  0  0  0  0999 V2000
    5.0487   -1.4989   -1.5305 H   0  0  0  0  0  0  0  0  0  0  0  0
    4.5912   -0.6592   -2.0355 C   0  0  0  0  0  0  0  0  0  0  0  0
    3.3041   -0.3240   -1.7597 N   0  0  0  0  0  0  0  0  0  0  0  0
    2.6888    0.7228   -2.3725 C   0  0  0  0  0  0  0  0  0  0  0  0
    1.6630    0.9500   -2.1121 H   0  0  0  0  0  0  0  0  0  0  0  0
    3.3812    1.5036   -3.3169 C   0  0  0  0  0  0  0  0  0  0  0  0
    2.6974    2.6382   -3.9892 C   0  0  0  0  0  0  0  0  0  0  0  0
    1.3435    2.6157   -4.1148 N   0  0  0  0  0  0  0  0  0  0  0  0
    0.6548    3.6301   -4.7085 C   0  0  0  0  0  0  0  0  0  0  0  0
   -0.6409    3.5746   -4.8350 N   0  0  0  0  0  0  0  0  0  0  0  0
   -1.4936    2.5376   -4.3145 C   0  0  0  0  0  0  0  0  0  0  0  0
   -1.3066    2.0354   -3.0133 C   0  0  0  0  0  0  0  0  0  0  0  0
   -0.5373    2.4522   -2.3753 H   0  0  0  0  0  0  0  0  0  0  0  0
   -2.1052    0.9945   -2.5246 C   0  0  0  0  0  0  0  0  0  0  0  0
   -1.8890    0.5032   -1.1926 N   0  0  0  0  0  0  0  0  0  0  0  0
   -1.5166    1.1693   -0.4774 H   0  0  0  0  0  0  0  0  0  0  0  0
   -1.9917   -0.8853   -0.8389 C   0  0  0  0  0  0  0  0  0  0  0  0
   -1.9347   -1.7676   -1.7404 O   0  0  0  0  0  0  0  0  0  0  0  0
   -2.0957   -1.2948    0.5800 C   0  0  0  0  0  0  0  0  0  0  0  0
   -2.6277   -0.4186    1.5406 C   0  0  0  0  0  0  0  0  0  0  0  0
   -3.0005    0.5568    1.2552 H   0  0  0  0  0  0  0  0  0  0  0  0
   -2.7057   -0.8001    2.8822 C   0  0  0  0  0  0  0  0  0  0  0  0
   -3.1408   -0.1129    3.5970 H   0  0  0  0  0  0  0  0  0  0  0  0
   -2.2239   -2.0526    3.2974 C   0  0  0  0  0  0  0  0  0  0  0  0
   -2.2734   -2.4517    4.7617 C   0  0  0  0  0  0  0  0  0  0  0  0
   -2.4361   -3.5513    4.8311 H   0  0  0  0  0  0  0  0  0  0  0  0
   -3.1731   -1.9951    5.2326 H   0  0  0  0  0  0  0  0  0  0  0  0
   -1.0631   -2.0832    5.5450 N   0  0  2  0  0  0  0  0  0  0  0  0
   -1.2185   -2.5004    6.4953 H   0  0  0  0  0  0  0  0  0  0  0  0
   -0.9527   -0.6168    5.7650 C   0  0  0  0  0  0  0  0  0  0  0  0
   -1.6753   -0.2938    6.5480 H   0  0  0  0  0  0  0  0  0  0  0  0
   -1.1808   -0.0450    4.8466 H   0  0  0  0  0  0  0  0  0  0  0  0
    0.4681   -0.2245    6.1998 C   0  0  0  0  0  0  0  0  0  0  0  0
    0.7030   -0.7644    7.1447 H   0  0  0  0  0  0  0  0  0  0  0  0
    0.4848    0.8604    6.4550 H   0  0  0  0  0  0  0  0  0  0  0  0
    1.4827   -0.5666    5.1642 N   0  0  2  0  0  0  0  0  0  0  0  0
    2.3550   -0.8640    5.6647 H   0  0  0  0  0  0  0  0  0  0  0  0
    1.8346    0.6145    4.3551 C   0  0  0  0  0  0  0  0  0  0  0  0
    2.2814    1.4045    4.9989 H   0  0  0  0  0  0  0  0  0  0  0  0
    0.9360    1.0304    3.8460 H   0  0  0  0  0  0  0  0  0  0  0  0
    2.5909    0.3486    3.5839 H   0  0  0  0  0  0  0  0  0  0  0  0
    1.0681   -1.6856    4.2774 C   0  0  0  0  0  0  0  0  0  0  0  0
    0.4952   -1.3101    3.4001 H   0  0  0  0  0  0  0  0  0  0  0  0
    1.9682   -2.2064    3.8789 H   0  0  0  0  0  0  0  0  0  0  0  0
    0.1915   -2.7009    5.0292 C   0  0  0  0  0  0  0  0  0  0  0  0
   -0.0115   -3.5801    4.3839 H   0  0  0  0  0  0  0  0  0  0  0  0
    0.7899   -3.0941    5.8812 H   0  0  0  0  0  0  0  0  0  0  0  0
   -1.7402   -2.9491    2.3281 C   0  0  0  0  0  0  0  0  0  0  0  0
   -1.4151   -3.9432    2.6083 H   0  0  0  0  0  0  0  0  0  0  0  0
   -1.6741   -2.5732    0.9835 C   0  0  0  0  0  0  0  0  0  0  0  0
   -1.2776   -3.2772    0.2617 H   0  0  0  0  0  0  0  0  0  0  0  0
   -3.1370    0.4865   -3.3264 C   0  0  0  0  0  0  0  0  0  0  0  0
   -3.7853   -0.2971   -2.9564 H   0  0  0  0  0  0  0  0  0  0  0  0
   -3.3686    1.0169   -4.5974 C   0  0  0  0  0  0  0  0  0  0  0  0
   -4.1831    0.6212   -5.1906 H   0  0  0  0  0  0  0  0  0  0  0  0
   -2.5628    2.0543   -5.0947 C   0  0  0  0  0  0  0  0  0  0  0  0
   -2.8143    2.6035   -6.4714 C   0  0  0  0  0  0  0  0  0  0  0  0
   -2.8489    3.7129   -6.4374 H   0  0  0  0  0  0  0  0  0  0  0  0
   -3.7834    2.2474   -6.8811 H   0  0  0  0  0  0  0  0  0  0  0  0
   -1.9993    2.2834   -7.1540 H   0  0  0  0  0  0  0  0  0  0  0  0
    1.3348    4.6968   -5.2117 N   0  0  0  0  0  0  0  0  0  0  0  0
    0.8181    5.4763   -5.6807 H   0  0  0  0  0  0  0  0  0  0  0  0
    2.6879    4.7717   -5.1043 C   0  0  0  0  0  0  0  0  0  0  0  0
    3.2148    5.6329   -5.4967 H   0  0  0  0  0  0  0  0  0  0  0  0
    3.4019    3.7450   -4.4864 C   0  0  0  0  0  0  0  0  0  0  0  0
    4.4750    3.8319   -4.3874 H   0  0  0  0  0  0  0  0  0  0  0  0
    4.7120    1.1565   -3.6161 C   0  0  0  0  0  0  0  0  0  0  0  0
    5.2798    1.6989   -4.3606 H   0  0  0  0  0  0  0  0  0  0  0  0
    5.3177    0.0754   -2.9719 C   0  0  0  0  0  0  0  0  0  0  0  0
    6.3392   -0.1963   -3.2019 H   0  0  0  0  0  0  0  0  0  0  0  0
  1  2  1  0
  2  3  2  0
  3  4  1  0
  4  5  1  0
  4  6  2  0
  6  7  1  0
  7  8  2  0
  8  9  1  0
  9 10  2  0
 10 11  1  0
 11 12  2  0
 12 13  1  0
 12 14  1  0
 14 15  1  0
 15 16  1  0
 15 17  1  0
 17 18  2  0
 17 19  1  0
 19 20  2  0
 20 21  1  0
 20 22  1  0
 22 23  1  0
 22 24  2  0
 24 25  1  0
 25 26  1  0
 25 27  1  0
 25 28  1  0
 28 29  1  1
 28 30  1  0
 30 31  1  0
 30 32  1  0
 30 33  1  0
 33 34  1  0
 33 35  1  0
 33 36  1  0
 36 37  1  1
 36 38  1  0
 38 39  1  0
 38 40  1  0
 38 41  1  0
 36 42  1  0
 42 43  1  0
 42 44  1  0
 42 45  1  0
 45 46  1  0
 45 47  1  0
 24 48  1  0
 48 49  1  0
 48 50  2  0
 50 51  1  0
 14 52  2  0
 52 53  1  0
 52 54  1  0
 54 55  1  0
 54 56  2  0
 56 57  1  0
 57 58  1  0
 57 59  1  0
 57 60  1  0
  9 61  1  0
 61 62  1  0
 61 63  1  0
 63 64  1  0
 63 65  2  0
 65 66  1  0
  6 67  1  0
 67 68  1  0
 67 69  2  0
 69 70  1  0
 69  2  1  0
 65  7  1  0
 56 11  1  0
 50 19  1  0
 45 28  1  0
M  CHG  2  28   1  36   1
M  ISO  3  39   2  40   2  41   2
M  END
>  <UniqueID>  (3) 
3

>  <SMILES>  (3) 
[2H]C([2H])([2H])[NH+]1CC[NH+](Cc2ccc(C(=O)Nc3ccc(C)c(/N=c4\nc(-c5cccnc5)cc[nH]4)c3)cc2)CC1

>  <Energy>  (3) 
107.06637938428568

>  <Genealogy>  (3) 
[2H]C([2H])([2H])[NH+]1CC[NH+](Cc2ccc(C(=O)Nc3ccc(C)c(Nc4nccc(-c5cccnc5)n4)c3)cc2)CC1 (protonated)
[2H]C([2H])([2H])[NH+]1CC[NH+](Cc2ccc(C(=O)Nc3ccc(C)c(N=c4nc(-c5cccnc5)cc[nH]4)c3)cc2)CC1 (tautomer)
[2H]C([2H])([2H])[NH+]1CC[NH+](Cc2ccc(C(=O)Nc3ccc(C)c(/N=c4\nc(-c5cccnc5)cc[nH]4)c3)cc2)CC1 (cis-trans isomerization)
[2H]C([2H])([2H])[NH+]1CC[NH+](Cc2ccc(C(=O)Nc3ccc(C)c(/N=c4\nc(-c5cccnc5)cc[nH]4)c3)cc2)CC1 (3D coordinates assigned)
[2H]C([2H])([2H])[NH+]1CC[NH+](Cc2ccc(C(=O)Nc3ccc(C)c(/N=c4\nc(-c5cccnc5)cc[nH]4)c3)cc2)CC1 (nonaromatic ring conformer: 107.06637938428568 kcal/mol)

$$$$
CHEMBL1642
     RDKit          3D

 69 73  0  0  0  0  0  0  0  0999 V2000
    7.4855   -2.3775    2.2319 C   0  0  0  0  0  0  0  0  0  0  0  0
    6.5375   -1.3940    1.5993 C   0  0  0  0  0  0  0  0  0  0  0  0
    6.8412   -0.0218    1.6330 C   0  0  0  0  0  0  0  0  0  0  0  0
    5.9719    0.9123    1.0652 C   0  0  0  0  0  0  0  0  0  0  0  0
    4.7980    0.4869    0.4419 C   0  0  0  0  0  0  0  0  0  0  0  0
    3.8864    1.4406   -0.1055 N   0  0  0  0  0  0  0  0  0  0  0  0
    2.7124    1.8313    0.6200 C   0  0  0  0  0  0  0  0  0  0  0  0
    2.6969    1.7150    1.8748 O   0  0  0  0  0  0  0  0  0  0  0  0
    1.5214    2.3717   -0.0769 C   0  0  0  0  0  0  0  0  0  0  0  0
    1.3009    2.1144   -1.4420 C   0  0  0  0  0  0  0  0  0  0  0  0
    0.1532    2.5938   -2.0793 C   0  0  0  0  0  0  0  0  0  0  0  0
   -0.7944    3.3394   -1.3643 C   0  0  0  0  0  0  0  0  0  0  0  0
   -2.0556    3.8167   -2.0462 C   0  0  0  0  0  0  0  0  0  0  0  0
   -3.0568    2.7307   -2.1746 N   0  0  0  0  0  0  0  0  0  0  0  0
   -3.5713    2.3128   -0.8456 C   0  0  0  0  0  0  0  0  0  0  0  0
   -4.8323    1.4299   -0.9498 C   0  0  0  0  0  0  0  0  0  0  0  0
   -4.9938    0.9202   -2.3221 N   0  0  0  0  0  0  0  0  0  0  0  0
   -6.1267   -0.0155   -2.3912 C   0  0  0  0  0  0  0  0  0  0  0  0
   -5.1978    2.0390   -3.2646 C   0  0  0  0  0  0  0  0  0  0  0  0
   -4.1698    3.1711   -3.0430 C   0  0  0  0  0  0  0  0  0  0  0  0
   -0.5827    3.5928   -0.0012 C   0  0  0  0  0  0  0  0  0  0  0  0
    0.5644    3.1138    0.6366 C   0  0  0  0  0  0  0  0  0  0  0  0
    4.5029   -0.8767    0.3693 C   0  0  0  0  0  0  0  0  0  0  0  0
    5.3497   -1.8310    0.9651 C   0  0  0  0  0  0  0  0  0  0  0  0
    5.0280   -3.2363    0.8989 N   0  0  0  0  0  0  0  0  0  0  0  0
    3.7024   -3.7684    1.0563 C   0  0  0  0  0  0  0  0  0  0  0  0
    3.4992   -5.1086    0.9715 N   0  0  0  0  0  0  0  0  0  0  0  0
    2.2613   -5.6398    1.1372 C   0  0  0  0  0  0  0  0  0  0  0  0
    1.1700   -4.8094    1.3898 C   0  0  0  0  0  0  0  0  0  0  0  0
    1.3774   -3.4215    1.4545 C   0  0  0  0  0  0  0  0  0  0  0  0
    0.2608   -2.4482    1.6424 C   0  0  0  0  0  0  0  0  0  0  0  0
    0.5441   -1.1127    1.9967 C   0  0  0  0  0  0  0  0  0  0  0  0
   -0.4829   -0.1744    2.1129 C   0  0  0  0  0  0  0  0  0  0  0  0
   -1.7977   -0.5691    1.8725 C   0  0  0  0  0  0  0  0  0  0  0  0
   -2.0680   -1.8583    1.5317 N   0  0  0  0  0  0  0  0  0  0  0  0
   -1.0879   -2.7938    1.4101 C   0  0  0  0  0  0  0  0  0  0  0  0
    2.6457   -2.9482    1.3057 N   0  0  0  0  0  0  0  0  0  0  0  0
    7.9870   -2.9707    1.4394 H   0  0  0  0  0  0  0  0  0  0  0  0
    8.2690   -1.8625    2.8293 H   0  0  0  0  0  0  0  0  0  0  0  0
    6.9332   -3.0593    2.9152 H   0  0  0  0  0  0  0  0  0  0  0  0
    7.7476    0.3324    2.1114 H   0  0  0  0  0  0  0  0  0  0  0  0
    6.2080    1.9683    1.1172 H   0  0  0  0  0  0  0  0  0  0  0  0
    4.0731    1.8160   -1.0638 H   0  0  0  0  0  0  0  0  0  0  0  0
    1.9961    1.5147   -2.0138 H   0  0  0  0  0  0  0  0  0  0  0  0
   -0.0046    2.3750   -3.1288 H   0  0  0  0  0  0  0  0  0  0  0  0
   -1.7721    4.1959   -3.0541 H   0  0  0  0  0  0  0  0  0  0  0  0
   -2.4869    4.6856   -1.4978 H   0  0  0  0  0  0  0  0  0  0  0  0
   -2.5942    1.9085   -2.6329 H   0  0  0  0  0  0  0  0  0  0  0  0
   -3.8137    3.2002   -0.2183 H   0  0  0  0  0  0  0  0  0  0  0  0
   -2.7833    1.7356   -0.3132 H   0  0  0  0  0  0  0  0  0  0  0  0
   -4.7342    0.5809   -0.2365 H   0  0  0  0  0  0  0  0  0  0  0  0
   -5.7276    2.0229   -0.6487 H   0  0  0  0  0  0  0  0  0  0  0  0
   -7.0767    0.4767   -2.0854 H   0  0  0  0  0  0  0  0  0  0  0  0
   -6.2391   -0.4030   -3.4277 H   0  0  0  0  0  0  0  0  0  0  0  0
   -5.9385   -0.8865   -1.7291 H   0  0  0  0  0  0  0  0  0  0  0  0
   -5.0912    1.6560   -4.3025 H   0  0  0  0  0  0  0  0  0  0  0  0
   -6.2247    2.4627   -3.1657 H   0  0  0  0  0  0  0  0  0  0  0  0
   -4.6856    4.0478   -2.5871 H   0  0  0  0  0  0  0  0  0  0  0  0
   -3.7821    3.4977   -4.0340 H   0  0  0  0  0  0  0  0  0  0  0  0
   -1.3138    4.1482    0.5728 H   0  0  0  0  0  0  0  0  0  0  0  0
    0.6984    3.3181    1.6915 H   0  0  0  0  0  0  0  0  0  0  0  0
    3.6152   -1.1847   -0.1664 H   0  0  0  0  0  0  0  0  0  0  0  0
    5.8058   -3.9247    0.8107 H   0  0  0  0  0  0  0  0  0  0  0  0
    2.1232   -6.7105    1.0731 H   0  0  0  0  0  0  0  0  0  0  0  0
    0.1984   -5.2582    1.5399 H   0  0  0  0  0  0  0  0  0  0  0  0
    1.5621   -0.7929    2.1845 H   0  0  0  0  0  0  0  0  0  0  0  0
   -0.2591    0.8503    2.3877 H   0  0  0  0  0  0  0  0  0  0  0  0
   -2.6051    0.1470    1.9601 H   0  0  0  0  0  0  0  0  0  0  0  0
   -1.3740   -3.7905    1.1027 H   0  0  0  0  0  0  0  0  0  0  0  0
  1  2  1  0
  2  3  2  0
  3  4  1  0
  4  5  2  0
  5  6  1  0
  6  7  1  0
  7  8  2  0
  7  9  1  0
  9 10  2  0
 10 11  1  0
 11 12  2  0
 12 13  1  0
 13 14  1  0
 14 15  1  0
 15 16  1  0
 16 17  1  0
 17 18  1  0
 17 19  1  0
 19 20  1  0
 12 21  1  0
 21 22  2  0
  5 23  1  0
 23 24  2  0
 24 25  1  0
 25 26  1  0
 26 27  2  0
 27 28  1  0
 28 29  2  0
 29 30  1  0
 30 31  1  0
 31 32  2  0
 32 33  1  0
 33 34  2  0
 34 35  1  0
 35 36  2  0
 30 37  2  0
 24  2  1  0
 37 26  1  0
 22  9  1  0
 36 31  1  0
 20 14  1  0
  1 38  1  0
  1 39  1  0
  1 40  1  0
  3 41  1  0
  4 42  1  0
  6 43  1  0
 10 44  1  0
 11 45  1  0
 13 46  1  0
 13 47  1  0
 14 48  1  0
 15 49  1  0
 15 50  1  0
 16 51  1  0
 16 52  1  0
 18 53  1  0
 18 54  1  0
 18 55  1  0
 19 56  1  0
 19 57  1  0
 20 58  1  0
 20 59  1  0
 21 60  1  0
 22 61  1  0
 23 62  1  0
 25 63  1  0
 28 64  1  0
 29 65  1  0
 32 66  1  0
 33 67  1  0
 34 68  1  0
 36 69  1  0
M  CHG  1  14   1
M  END
>  <UniqueID>  (4) 
4

>  <SMILES>  (4) 
Cc1ccc(NC(=O)c2ccc(C[NH+]3CCN(C)CC3)cc2)cc1Nc1nccc(-c2cccnc2)n1

>  <Energy>  (4) 
98.57727956969705

>  <Genealogy>  (4) 
Cc1ccc(NC(=O)c2ccc(C[NH+]3CCN(C)CC3)cc2)cc1Nc1nccc(-c2cccnc2)n1 (protonated)
Cc1ccc(NC(=O)c2ccc(C[NH+]3CCN(C)CC3)cc2)cc1Nc1nccc(-c2cccnc2)n1 (3D coordinates assigned)
Cc1ccc(NC(=O)c2ccc(C[NH+]3CCN(C)CC3)cc2)cc1Nc1nccc(-c2cccnc2)n1 (nonaromatic ring conformer: 98.57727956969705 kcal/mol)

$$$$
CHEMBL1642
     RDKit          3D

 69 73  0  0  0  0  0  0  0  0999 V2000
    7.4091   -1.5480    2.1966 C   0  0  0  0  0  0  0  0  0  0  0  0
    6.1548   -0.9954    1.5739 C   0  0  0  0  0  0  0  0  0  0  0  0
    6.0435    0.3873    1.3575 C   0  0  0  0  0  0  0  0  0  0  0  0
    4.8916    0.9240    0.7779 C   0  0  0  0  0  0  0  0  0  0  0  0
    3.8362    0.0879    0.3942 C   0  0  0  0  0  0  0  0  0  0  0  0
    2.6383    0.6270   -0.1835 N   0  0  0  0  0  0  0  0  0  0  0  0
    2.6484    1.6227   -1.2215 C   0  0  0  0  0  0  0  0  0  0  0  0
    3.7294    1.9302   -1.7907 O   0  0  0  0  0  0  0  0  0  0  0  0
    1.3926    2.2828   -1.6401 C   0  0  0  0  0  0  0  0  0  0  0  0
    0.3515    2.4913   -0.7196 C   0  0  0  0  0  0  0  0  0  0  0  0
   -0.8199    3.1461   -1.1112 C   0  0  0  0  0  0  0  0  0  0  0  0
   -0.9761    3.5886   -2.4347 C   0  0  0  0  0  0  0  0  0  0  0  0
   -2.2550    4.2625   -2.8762 C   0  0  0  0  0  0  0  0  0  0  0  0
   -3.1794    3.3122   -3.5570 N   0  0  0  0  0  0  0  0  0  0  0  0
   -3.7688    2.3161   -2.6298 C   0  0  0  0  0  0  0  0  0  0  0  0
   -4.7626    2.9456   -1.6243 C   0  0  0  0  0  0  0  0  0  0  0  0
   -5.2245    4.2828   -2.0552 N   0  0  0  0  0  0  0  0  0  0  0  0
   -6.4136    4.6835   -1.2889 C   0  0  0  0  0  0  0  0  0  0  0  0
   -5.5213    4.2894   -3.4967 C   0  0  0  0  0  0  0  0  0  0  0  0
   -4.2432    4.0165   -4.3214 C   0  0  0  0  0  0  0  0  0  0  0  0
    0.0576    3.3695   -3.3591 C   0  0  0  0  0  0  0  0  0  0  0  0
    1.2378    2.7351   -2.9614 C   0  0  0  0  0  0  0  0  0  0  0  0
    3.9383   -1.2907    0.6120 C   0  0  0  0  0  0  0  0  0  0  0  0
    5.0924   -1.8471    1.1934 C   0  0  0  0  0  0  0  0  0  0  0  0
    5.2158   -3.2768    1.3330 N   0  0  0  0  0  0  0  0  0  0  0  0
    4.1359   -4.1327    1.7300 C   0  0  0  0  0  0  0  0  0  0  0  0
    4.2478   -5.4769    1.5646 N   0  0  0  0  0  0  0  0  0  0  0  0
    3.2467   -6.3131    1.9419 C   0  0  0  0  0  0  0  0  0  0  0  0
    2.0810   -5.7964    2.5071 C   0  0  0  0  0  0  0  0  0  0  0  0
    1.9719   -4.4063    2.6806 C   0  0  0  0  0  0  0  0  0  0  0  0
    0.7695   -3.7834    3.2917 C   0  0  0  0  0  0  0  0  0  0  0  0
    0.8747   -2.5450    3.9487 C   0  0  0  0  0  0  0  0  0  0  0  0
   -0.2525   -1.9565    4.5295 C   0  0  0  0  0  0  0  0  0  0  0  0
   -1.4839   -2.6047    4.4425 C   0  0  0  0  0  0  0  0  0  0  0  0
   -1.5805   -3.7952    3.7942 N   0  0  0  0  0  0  0  0  0  0  0  0
   -0.4998   -4.3908    3.2203 C   0  0  0  0  0  0  0  0  0  0  0  0
    3.0098   -3.6150    2.2930 N   0  0  0  0  0  0  0  0  0  0  0  0
    7.1529   -2.3152    2.9579 H   0  0  0  0  0  0  0  0  0  0  0  0
    7.9890   -0.7530    2.7082 H   0  0  0  0  0  0  0  0  0  0  0  0
    8.0437   -2.0095    1.4118 H   0  0  0  0  0  0  0  0  0  0  0  0
    6.8462    1.0540    1.6480 H   0  0  0  0  0  0  0  0  0  0  0  0
    4.8174    1.9948    0.6437 H   0  0  0  0  0  0  0  0  0  0  0  0
    1.7346    0.1459    0.0284 H   0  0  0  0  0  0  0  0  0  0  0  0
    0.4533    2.1758    0.3109 H   0  0  0  0  0  0  0  0  0  0  0  0
   -1.6066    3.3041   -0.3829 H   0  0  0  0  0  0  0  0  0  0  0  0
   -1.9677    5.0858   -3.5696 H   0  0  0  0  0  0  0  0  0  0  0  0
   -2.7408    4.7551   -2.0074 H   0  0  0  0  0  0  0  0  0  0  0  0
   -2.6156    2.7776   -4.2620 H   0  0  0  0  0  0  0  0  0  0  0  0
   -4.3128    1.5498   -3.2300 H   0  0  0  0  0  0  0  0  0  0  0  0
   -2.9784    1.7568   -2.0845 H   0  0  0  0  0  0  0  0  0  0  0  0
   -5.6208    2.2486   -1.4898 H   0  0  0  0  0  0  0  0  0  0  0  0
   -4.2584    3.0484   -0.6374 H   0  0  0  0  0  0  0  0  0  0  0  0
   -6.2247    4.5790   -0.2001 H   0  0  0  0  0  0  0  0  0  0  0  0
   -7.2956    4.0610   -1.5572 H   0  0  0  0  0  0  0  0  0  0  0  0
   -6.6508    5.7509   -1.4858 H   0  0  0  0  0  0  0  0  0  0  0  0
   -5.9319    5.2801   -3.7992 H   0  0  0  0  0  0  0  0  0  0  0  0
   -6.2907    3.5144   -3.7351 H   0  0  0  0  0  0  0  0  0  0  0  0
   -3.8651    4.9748   -4.7450 H   0  0  0  0  0  0  0  0  0  0  0  0
   -4.5360    3.3982   -5.2015 H   0  0  0  0  0  0  0  0  0  0  0  0
   -0.0472    3.6976   -4.3872 H   0  0  0  0  0  0  0  0  0  0  0  0
    2.0248    2.5844   -3.6910 H   0  0  0  0  0  0  0  0  0  0  0  0
    3.1318   -1.9347    0.2861 H   0  0  0  0  0  0  0  0  0  0  0  0
    6.1398   -3.7214    1.1390 H   0  0  0  0  0  0  0  0  0  0  0  0
    3.3560   -7.3806    1.8054 H   0  0  0  0  0  0  0  0  0  0  0  0
    1.3020   -6.4768    2.8254 H   0  0  0  0  0  0  0  0  0  0  0  0
    1.8304   -2.0393    4.0268 H   0  0  0  0  0  0  0  0  0  0  0  0
   -0.1701   -1.0067    5.0420 H   0  0  0  0  0  0  0  0  0  0  0  0
   -2.3640   -2.1630    4.8924 H   0  0  0  0  0  0  0  0  0  0  0  0
   -0.6447   -5.3255    2.6976 H   0  0  0  0  0  0  0  0  0  0  0  0
  1  2  1  0
  2  3  2  0
  3  4  1  0
  4  5  2  0
  5  6  1  0
  6  7  1  0
  7  8  2  0
  7  9  1  0
  9 10  2  0
 10 11  1  0
 11 12  2  0
 12 13  1  0
 13 14  1  0
 14 15  1  0
 15 16  1  0
 16 17  1  0
 17 18  1  0
 17 19  1  0
 19 20  1  0
 12 21  1  0
 21 22  2  0
  5 23  1  0
 23 24  2  0
 24 25  1  0
 25 26  1  0
 26 27  2  0
 27 28  1  0
 28 29  2  0
 29 30  1  0
 30 31  1  0
 31 32  2  0
 32 33  1  0
 33 34  2  0
 34 35  1  0
 35 36  2  0
 30 37  2  0
 24  2  1  0
 37 26  1  0
 22  9  1  0
 36 31  1  0
 20 14  1  0
  1 38  1  0
  1 39  1  0
  1 40  1  0
  3 41  1  0
  4 42  1  0
  6 43  1  0
 10 44  1  0
 11 45  1  0
 13 46  1  0
 13 47  1  0
 14 48  1  0
 15 49  1  0
 15 50  1  0
 16 51  1  0
 16 52  1  0
 18 53  1  0
 18 54  1  0
 18 55  1  0
 19 56  1  0
 19 57  1  0
 20 58  1  0
 20 59  1  0
 21 60  1  0
 22 61  1  0
 23 62  1  0
 25 63  1  0
 28 64  1  0
 29 65  1  0
 32 66  1  0
 33 67  1  0
 34 68  1  0
 36 69  1  0
M  CHG  1  14   1
M  END
>  <UniqueID>  (5) 
5

>  <SMILES>  (5) 
Cc1ccc(NC(=O)c2ccc(C[NH+]3CCN(C)CC3)cc2)cc1Nc1nccc(-c2cccnc2)n1

>  <Energy>  (5) 
101.58832740373512

>  <Genealogy>  (5) 
Cc1ccc(NC(=O)c2ccc(C[NH+]3CCN(C)CC3)cc2)cc1Nc1nccc(-c2cccnc2)n1 (protonated)
Cc1ccc(NC(=O)c2ccc(C[NH+]3CCN(C)CC3)cc2)cc1Nc1nccc(-c2cccnc2)n1 (3D coordinates assigned)
Cc1ccc(NC(=O)c2ccc(C[NH+]3CCN(C)CC3)cc2)cc1Nc1nccc(-c2cccnc2)n1 (nonaromatic ring conformer: 101.58832740373512 kcal/mol)

$$$$
CHEMBL1642
     RDKit          3D

 69 73  0  0  0  0  0  0  0  0999 V2000
    7.5037   -2.0279    1.7618 C   0  0  0  0  0  0  0  0  0  0  0  0
    6.2693   -1.3313    1.2550 C   0  0  0  0  0  0  0  0  0  0  0  0
    6.2977    0.0575    1.0510 C   0  0  0  0  0  0  0  0  0  0  0  0
    5.1656    0.7309    0.5891 C   0  0  0  0  0  0  0  0  0  0  0  0
    3.9870    0.0241    0.3047 C   0  0  0  0  0  0  0  0  0  0  0  0
    2.8031    0.6972   -0.1515 N   0  0  0  0  0  0  0  0  0  0  0  0
    2.8117    1.7756   -1.1008 C   0  0  0  0  0  0  0  0  0  0  0  0
    3.8669    2.0667   -1.7258 O   0  0  0  0  0  0  0  0  0  0  0  0
    1.5688    2.5163   -1.3901 C   0  0  0  0  0  0  0  0  0  0  0  0
    0.6571    2.8057   -0.3622 C   0  0  0  0  0  0  0  0  0  0  0  0
   -0.5280    3.4932   -0.6428 C   0  0  0  0  0  0  0  0  0  0  0  0
   -0.8356    3.8717   -1.9606 C   0  0  0  0  0  0  0  0  0  0  0  0
   -2.1430    4.5690   -2.2786 C   0  0  0  0  0  0  0  0  0  0  0  0
   -3.3274    3.7341   -1.9563 N   0  0  0  0  0  0  0  0  0  0  0  0
   -3.3977    2.5017   -2.7991 C   0  0  0  0  0  0  0  0  0  0  0  0
   -4.4856    2.5782   -3.8810 C   0  0  0  0  0  0  0  0  0  0  0  0
   -5.8225    2.7751   -3.2766 N   0  0  0  0  0  0  0  0  0  0  0  0
   -6.7789    3.2344   -4.2952 C   0  0  0  0  0  0  0  0  0  0  0  0
   -5.8116    3.6797   -2.0990 C   0  0  0  0  0  0  0  0  0  0  0  0
   -4.5548    4.5626   -2.0496 C   0  0  0  0  0  0  0  0  0  0  0  0
    0.0868    3.5985   -2.9839 C   0  0  0  0  0  0  0  0  0  0  0  0
    1.2841    2.9357   -2.7005 C   0  0  0  0  0  0  0  0  0  0  0  0
    3.9523   -1.3619    0.5057 C   0  0  0  0  0  0  0  0  0  0  0  0
    5.0840   -2.0523    0.9792 C   0  0  0  0  0  0  0  0  0  0  0  0
    5.0543   -3.4880    1.1091 N   0  0  0  0  0  0  0  0  0  0  0  0
    3.9107   -4.2235    1.5663 C   0  0  0  0  0  0  0  0  0  0  0  0
    3.8561   -5.5687    1.3793 N   0  0  0  0  0  0  0  0  0  0  0  0
    2.7950   -6.2930    1.8174 C   0  0  0  0  0  0  0  0  0  0  0  0
    1.7397   -5.6594    2.4713 C   0  0  0  0  0  0  0  0  0  0  0  0
    1.8034   -4.2717    2.6657 C   0  0  0  0  0  0  0  0  0  0  0  0
    0.7228   -3.5289    3.3590 C   0  0  0  0  0  0  0  0  0  0  0  0
   -0.6191   -3.9514    3.3001 C   0  0  0  0  0  0  0  0  0  0  0  0
   -1.6125   -3.2267    3.9626 C   0  0  0  0  0  0  0  0  0  0  0  0
   -1.2627   -2.0765    4.6743 C   0  0  0  0  0  0  0  0  0  0  0  0
    0.0343   -1.6688    4.7152 N   0  0  0  0  0  0  0  0  0  0  0  0
    1.0219   -2.3566    4.0790 C   0  0  0  0  0  0  0  0  0  0  0  0
    2.8964   -3.5943    2.2187 N   0  0  0  0  0  0  0  0  0  0  0  0
    8.2679   -1.3022    2.1166 H   0  0  0  0  0  0  0  0  0  0  0  0
    7.9471   -2.6409    0.9508 H   0  0  0  0  0  0  0  0  0  0  0  0
    7.2450   -2.6890    2.6149 H   0  0  0  0  0  0  0  0  0  0  0  0
    7.1977    0.6231    1.2597 H   0  0  0  0  0  0  0  0  0  0  0  0
    5.2038    1.8052    0.4700 H   0  0  0  0  0  0  0  0  0  0  0  0
    1.8792    0.2744    0.0954 H   0  0  0  0  0  0  0  0  0  0  0  0
    0.8707    2.5171    0.6604 H   0  0  0  0  0  0  0  0  0  0  0  0
   -1.2108    3.7169    0.1664 H   0  0  0  0  0  0  0  0  0  0  0  0
   -2.1687    5.5121   -1.6874 H   0  0  0  0  0  0  0  0  0  0  0  0
   -2.1728    4.8670   -3.3532 H   0  0  0  0  0  0  0  0  0  0  0  0
   -3.2511    3.4319   -0.9532 H   0  0  0  0  0  0  0  0  0  0  0  0
   -3.6212    1.6228   -2.1521 H   0  0  0  0  0  0  0  0  0  0  0  0
   -2.4291    2.2780   -3.2975 H   0  0  0  0  0  0  0  0  0  0  0  0
   -4.2294    3.4102   -4.5779 H   0  0  0  0  0  0  0  0  0  0  0  0
   -4.4852    1.6311   -4.4618 H   0  0  0  0  0  0  0  0  0  0  0  0
   -6.8006    2.5273   -5.1521 H   0  0  0  0  0  0  0  0  0  0  0  0
   -6.5105    4.2501   -4.6647 H   0  0  0  0  0  0  0  0  0  0  0  0
   -7.8045    3.2576   -3.8695 H   0  0  0  0  0  0  0  0  0  0  0  0
   -6.7119    4.3336   -2.0637 H   0  0  0  0  0  0  0  0  0  0  0  0
   -5.8417    3.0558   -1.1799 H   0  0  0  0  0  0  0  0  0  0  0  0
   -4.5395    5.2026   -2.9646 H   0  0  0  0  0  0  0  0  0  0  0  0
   -4.6223    5.2456   -1.1687 H   0  0  0  0  0  0  0  0  0  0  0  0
   -0.1230    3.8888   -4.0066 H   0  0  0  0  0  0  0  0  0  0  0  0
    1.9761    2.7306   -3.5094 H   0  0  0  0  0  0  0  0  0  0  0  0
    3.0492   -1.9059    0.2545 H   0  0  0  0  0  0  0  0  0  0  0  0
    5.9111   -4.0319    0.8634 H   0  0  0  0  0  0  0  0  0  0  0  0
    2.7698   -7.3630    1.6600 H   0  0  0  0  0  0  0  0  0  0  0  0
    0.9077   -6.2484    2.8325 H   0  0  0  0  0  0  0  0  0  0  0  0
   -0.9101   -4.8226    2.7266 H   0  0  0  0  0  0  0  0  0  0  0  0
   -2.6463   -3.5482    3.9169 H   0  0  0  0  0  0  0  0  0  0  0  0
   -2.0238   -1.5065    5.1913 H   0  0  0  0  0  0  0  0  0  0  0  0
    2.0422   -1.9965    4.1491 H   0  0  0  0  0  0  0  0  0  0  0  0
  1  2  1  0
  2  3  2  0
  3  4  1  0
  4  5  2  0
  5  6  1  0
  6  7  1  0
  7  8  2  0
  7  9  1  0
  9 10  2  0
 10 11  1  0
 11 12  2  0
 12 13  1  0
 13 14  1  0
 14 15  1  0
 15 16  1  0
 16 17  1  0
 17 18  1  0
 17 19  1  0
 19 20  1  0
 12 21  1  0
 21 22  2  0
  5 23  1  0
 23 24  2  0
 24 25  1  0
 25 26  1  0
 26 27  2  0
 27 28  1  0
 28 29  2  0
 29 30  1  0
 30 31  1  0
 31 32  2  0
 32 33  1  0
 33 34  2  0
 34 35  1  0
 35 36  2  0
 30 37  2  0
 24  2  1  0
 37 26  1  0
 22  9  1  0
 36 31  1  0
 20 14  1  0
  1 38  1  0
  1 39  1  0
  1 40  1  0
  3 41  1  0
  4 42  1  0
  6 43  1  0
 10 44  1  0
 11 45  1  0
 13 46  1  0
 13 47  1  0
 14 48  1  0
 15 49  1  0
 15 50  1  0
 16 51  1  0
 16 52  1  0
 18 53  1  0
 18 54  1  0
 18 55  1  0
 19 56  1  0
 19 57  1  0
 20 58  1  0
 20 59  1  0
 21 60  1  0
 22 61  1  0
 23 62  1  0
 25 63  1  0
 28 64  1  0
 29 65  1  0
 32 66  1  0
 33 67  1  0
 34 68  1  0
 36 69  1  0
M  CHG  1  14   1
M  END
>  <UniqueID>  (6) 
6

>  <SMILES>  (6) 
Cc1ccc(NC(=O)c2ccc(C[NH+]3CCN(C)CC3)cc2)cc1Nc1nccc(-c2cccnc2)n1

>  <Energy>  (6) 
103.8556060634761

>  <Genealogy>  (6) 
Cc1ccc(NC(=O)c2ccc(C[NH+]3CCN(C)CC3)cc2)cc1Nc1nccc(-c2cccnc2)n1 (protonated)
Cc1ccc(NC(=O)c2ccc(C[NH+]3CCN(C)CC3)cc2)cc1Nc1nccc(-c2cccnc2)n1 (3D coordinates assigned)
Cc1ccc(NC(=O)c2ccc(C[NH+]3CCN(C)CC3)cc2)cc1Nc1nccc(-c2cccnc2)n1 (nonaromatic ring conformer: 103.8556060634761 kcal/mol)

$$$$
CHEMBL3098615
     RDKit          3D

 72 76  0  0  0  0  0  0  0  0999 V2000
   -1.7427    3.0532   -1.4389 H   0  0  0  0  0  0  0  0  0  0  0  0
   -0.8624    2.5635   -1.4857 O   0  0  0  0  0  0  0  0  0  0  0  0
   -0.7392    1.2636   -1.9900 C   0  0  0  0  0  0  0  0  0  0  0  0
   -1.7341    0.6335   -2.5416 N   0  0  0  0  0  0  0  0  0  0  0  0
   -3.0501    1.1467   -2.7742 C   0  0  0  0  0  0  0  0  0  0  0  0
   -3.2614    2.3450   -3.4686 C   0  0  0  0  0  0  0  0  0  0  0  0
   -2.4227    2.9212   -3.8380 H   0  0  0  0  0  0  0  0  0  0  0  0
   -4.5632    2.7999   -3.6992 C   0  0  0  0  0  0  0  0  0  0  0  0
   -4.7043    3.7271   -4.2399 H   0  0  0  0  0  0  0  0  0  0  0  0
   -5.6690    2.0670   -3.2334 C   0  0  0  0  0  0  0  0  0  0  0  0
   -7.0607    2.5899   -3.4664 C   0  0  0  0  0  0  0  0  0  0  0  0
   -7.6042    1.9143   -4.1596 H   0  0  0  0  0  0  0  0  0  0  0  0
   -7.0474    3.6057   -3.9165 H   0  0  0  0  0  0  0  0  0  0  0  0
   -7.6070    2.6455   -2.5005 H   0  0  0  0  0  0  0  0  0  0  0  0
   -5.4602    0.8515   -2.5431 C   0  0  0  0  0  0  0  0  0  0  0  0
   -6.5693    0.0844   -2.0370 N   0  0  0  0  0  0  0  0  0  0  0  0
   -7.4257   -0.0225   -2.6238 H   0  0  0  0  0  0  0  0  0  0  0  0
   -6.5718   -0.4999   -0.7265 C   0  0  0  0  0  0  0  0  0  0  0  0
   -7.5574   -1.3683   -0.3705 N   0  0  0  0  0  0  0  0  0  0  0  0
   -7.5760   -1.9298    0.8659 C   0  0  0  0  0  0  0  0  0  0  0  0
   -8.3696   -2.6165    1.1340 H   0  0  0  0  0  0  0  0  0  0  0  0
   -6.5669   -1.6420    1.7850 C   0  0  0  0  0  0  0  0  0  0  0  0
   -6.6019   -2.0903    2.7719 H   0  0  0  0  0  0  0  0  0  0  0  0
   -5.5383   -0.7632    1.4017 C   0  0  0  0  0  0  0  0  0  0  0  0
   -4.4090   -0.4255    2.3001 C   0  0  0  0  0  0  0  0  0  0  0  0
   -3.9482   -1.3254    3.2808 C   0  0  0  0  0  0  0  0  0  0  0  0
   -4.4108   -2.2969    3.4166 H   0  0  0  0  0  0  0  0  0  0  0  0
   -2.8752   -1.0058    4.0513 N   0  0  0  0  0  0  0  0  0  0  0  0
   -2.2197    0.1779    3.9178 C   0  0  0  0  0  0  0  0  0  0  0  0
   -1.3699    0.3944    4.5497 H   0  0  0  0  0  0  0  0  0  0  0  0
   -2.6380    1.1051    2.9620 C   0  0  0  0  0  0  0  0  0  0  0  0
   -2.1201    2.0518    2.8512 H   0  0  0  0  0  0  0  0  0  0  0  0
   -3.7308    0.7991    2.1501 C   0  0  0  0  0  0  0  0  0  0  0  0
   -4.0509    1.5217    1.4105 H   0  0  0  0  0  0  0  0  0  0  0  0
   -5.5811   -0.2106    0.1593 N   0  0  0  0  0  0  0  0  0  0  0  0
   -4.1437    0.3882   -2.3539 C   0  0  0  0  0  0  0  0  0  0  0  0
   -3.9629   -0.5624   -1.8632 H   0  0  0  0  0  0  0  0  0  0  0  0
    0.5450    0.5644   -1.8513 C   0  0  0  0  0  0  0  0  0  0  0  0
    1.7506    1.2184   -2.1523 C   0  0  0  0  0  0  0  0  0  0  0  0
    1.7530    2.2488   -2.4866 H   0  0  0  0  0  0  0  0  0  0  0  0
    2.9634    0.5271   -2.0571 C   0  0  0  0  0  0  0  0  0  0  0  0
    3.8863    1.0381   -2.3028 H   0  0  0  0  0  0  0  0  0  0  0  0
    2.9879   -0.8123   -1.6330 C   0  0  0  0  0  0  0  0  0  0  0  0
    4.2927   -1.5466   -1.4728 C   0  0  0  0  0  0  0  0  0  0  0  0
    4.1178   -2.6148   -1.7465 H   0  0  0  0  0  0  0  0  0  0  0  0
    5.0504   -1.1625   -2.1920 H   0  0  0  0  0  0  0  0  0  0  0  0
    4.7754   -1.4406   -0.0791 N   0  0  0  0  0  0  0  0  0  0  0  0
    5.8116   -2.4528    0.1889 C   0  0  0  0  0  0  0  0  0  0  0  0
    6.7196   -2.2448   -0.4249 H   0  0  0  0  0  0  0  0  0  0  0  0
    5.4430   -3.4679   -0.0803 H   0  0  0  0  0  0  0  0  0  0  0  0
    6.1842   -2.4667    1.6883 C   0  0  0  0  0  0  0  0  0  0  0  0
    5.6406   -3.2993    2.1869 H   0  0  0  0  0  0  0  0  0  0  0  0
    7.2638   -2.7153    1.7757 H   0  0  0  0  0  0  0  0  0  0  0  0
    5.9443   -1.1713    2.3741 N   0  0  0  0  0  0  0  0  0  0  0  0
    4.6228   -1.1213    3.0473 C   0  0  0  0  0  0  0  0  0  0  0  0
    4.4333   -2.0796    3.5823 H   0  0  0  0  0  0  0  0  0  0  0  0
    3.7916   -0.9813    2.3219 H   0  0  0  0  0  0  0  0  0  0  0  0
    4.5676   -0.0176    4.1120 C   0  0  0  0  0  0  0  0  0  0  0  0
    3.6351   -0.1405    4.7139 H   0  0  0  0  0  0  0  0  0  0  0  0
    4.5346    0.9908    3.6365 H   0  0  0  0  0  0  0  0  0  0  0  0
    5.6766   -0.1168    4.9639 O   0  0  0  0  0  0  0  0  0  0  0  0
    5.6088    0.6565    5.5875 H   0  0  0  0  0  0  0  0  0  0  0  0
    6.1896   -0.0352    1.4582 C   0  0  0  0  0  0  0  0  0  0  0  0
    6.0785    0.9404    1.9801 H   0  0  0  0  0  0  0  0  0  0  0  0
    7.2536   -0.0776    1.1220 H   0  0  0  0  0  0  0  0  0  0  0  0
    5.2828   -0.0778    0.2116 C   0  0  0  0  0  0  0  0  0  0  0  0
    4.4153    0.5924    0.3990 H   0  0  0  0  0  0  0  0  0  0  0  0
    5.8562    0.3372   -0.6506 H   0  0  0  0  0  0  0  0  0  0  0  0
    1.7844   -1.4477   -1.2922 C   0  0  0  0  0  0  0  0  0  0  0  0
    1.7862   -2.4706   -0.9352 H   0  0  0  0  0  0  0  0  0  0  0  0
    0.5708   -0.7701   -1.4218 C   0  0  0  0  0  0  0  0  0  0  0  0
   -0.3495   -1.2858   -1.1658 H   0  0  0  0  0  0  0  0  0  0  0  0
  1  2  1  0
  2  3  1  0
  3  4  2  0
  4  5  1  0
  5  6  2  0
  6  7  1  0
  6  8  1  0
  8  9  1  0
  8 10  2  0
 10 11  1  0
 11 12  1  0
 11 13  1  0
 11 14  1  0
 10 15  1  0
 15 16  1  0
 16 17  1  0
 16 18  1  0
 18 19  2  0
 19 20  1  0
 20 21  1  0
 20 22  2  0
 22 23  1  0
 22 24  1  0
 24 25  1  0
 25 26  2  0
 26 27  1  0
 26 28  1  0
 28 29  2  0
 29 30  1  0
 29 31  1  0
 31 32  1  0
 31 33  2  0
 33 34  1  0
 24 35  2  0
 15 36  2  0
 36 37  1  0
  3 38  1  0
 38 39  2  0
 39 40  1  0
 39 41  1  0
 41 42  1  0
 41 43  2  0
 43 44  1  0
 44 45  1  0
 44 46  1  0
 44 47  1  0
 47 48  1  0
 48 49  1  0
 48 50  1  0
 48 51  1  0
 51 52  1  0
 51 53  1  0
 51 54  1  0
 54 55  1  0
 55 56  1  0
 55 57  1  0
 55 58  1  0
 58 59  1  0
 58 60  1  0
 58 61  1  0
 61 62  1  0
 54 63  1  0
 63 64  1  0
 63 65  1  0
 63 66  1  0
 66 67  1  0
 66 68  1  0
 43 69  1  0
 69 70  1  0
 69 71  2  0
 71 72  1  0
 36  5  1  0
 71 38  1  0
 35 18  1  0
 66 47  1  0
 33 25  1  0
M  END
>  <UniqueID>  (7) 
7

>  <SMILES>  (7) 
Cc1ccc(/N=C(\O)c2ccc(CN3CCN(CCO)CC3)cc2)cc1Nc1nccc(-c2cccnc2)n1

>  <Energy>  (7) 
108.04149842234645

>  <Genealogy>  (7) 
Cc1ccc(N=C(O)c2ccc(CN3CCN(CCO)CC3)cc2)cc1Nc1nccc(-c2cccnc2)n1 (tautomer)
Cc1ccc(/N=C(\O)c2ccc(CN3CCN(CCO)CC3)cc2)cc1Nc1nccc(-c2cccnc2)n1 (cis-trans isomerization)
Cc1ccc(/N=C(\O)c2ccc(CN3CCN(CCO)CC3)cc2)cc1Nc1nccc(-c2cccnc2)n1 (3D coordinates assigned)
Cc1ccc(/N=C(\O)c2ccc(CN3CCN(CCO)CC3)cc2)cc1Nc1nccc(-c2cccnc2)n1 (nonaromatic ring conformer: 108.04149842234645 kcal/mol)

$$$$
CHEMBL3098615
     RDKit          3D

 72 76  0  0  0  0  0  0  0  0999 V2000
   -1.4319    0.4934   -4.7156 H   0  0  0  0  0  0  0  0  0  0  0  0
   -0.6100    0.6907   -4.1616 O   0  0  0  0  0  0  0  0  0  0  0  0
   -0.6464    0.8906   -2.7773 C   0  0  0  0  0  0  0  0  0  0  0  0
   -1.7753    0.9551   -2.1293 N   0  0  0  0  0  0  0  0  0  0  0  0
   -3.0918    0.9735   -2.6977 C   0  0  0  0  0  0  0  0  0  0  0  0
   -3.4336    1.8872   -3.7040 C   0  0  0  0  0  0  0  0  0  0  0  0
   -2.6906    2.5650   -4.1042 H   0  0  0  0  0  0  0  0  0  0  0  0
   -4.7432    1.9491   -4.1812 C   0  0  0  0  0  0  0  0  0  0  0  0
   -4.9798    2.6601   -4.9630 H   0  0  0  0  0  0  0  0  0  0  0  0
   -5.7431    1.1247   -3.6378 C   0  0  0  0  0  0  0  0  0  0  0  0
   -7.1508    1.2262   -4.1634 C   0  0  0  0  0  0  0  0  0  0  0  0
   -7.2609    2.0680   -4.8813 H   0  0  0  0  0  0  0  0  0  0  0  0
   -7.8545    1.3957   -3.3203 H   0  0  0  0  0  0  0  0  0  0  0  0
   -7.4230    0.2867   -4.6889 H   0  0  0  0  0  0  0  0  0  0  0  0
   -5.4144    0.2228   -2.5989 C   0  0  0  0  0  0  0  0  0  0  0  0
   -6.4201   -0.6479   -2.0418 N   0  0  0  0  0  0  0  0  0  0  0  0
   -7.1765   -1.0064   -2.6682 H   0  0  0  0  0  0  0  0  0  0  0  0
   -6.5096   -0.9920   -0.6506 C   0  0  0  0  0  0  0  0  0  0  0  0
   -7.4349   -1.8994   -0.2423 N   0  0  0  0  0  0  0  0  0  0  0  0
   -7.5640   -2.2254    1.0683 C   0  0  0  0  0  0  0  0  0  0  0  0
   -8.3014   -2.9589    1.3745 H   0  0  0  0  0  0  0  0  0  0  0  0
   -6.7396   -1.6286    2.0214 C   0  0  0  0  0  0  0  0  0  0  0  0
   -6.8694   -1.8897    3.0618 H   0  0  0  0  0  0  0  0  0  0  0  0
   -5.7712   -0.7040    1.5961 C   0  0  0  0  0  0  0  0  0  0  0  0
   -4.8264   -0.0431    2.5406 C   0  0  0  0  0  0  0  0  0  0  0  0
   -4.1513    1.1316    2.1540 C   0  0  0  0  0  0  0  0  0  0  0  0
   -4.3279    1.5817    1.1833 H   0  0  0  0  0  0  0  0  0  0  0  0
   -3.2706    1.7301    2.9984 N   0  0  0  0  0  0  0  0  0  0  0  0
   -3.0064    1.2288    4.2326 C   0  0  0  0  0  0  0  0  0  0  0  0
   -2.3037    1.7353    4.8812 H   0  0  0  0  0  0  0  0  0  0  0  0
   -3.6420    0.0657    4.6614 C   0  0  0  0  0  0  0  0  0  0  0  0
   -3.4298   -0.3442    5.6407 H   0  0  0  0  0  0  0  0  0  0  0  0
   -4.5450   -0.5762    3.8137 C   0  0  0  0  0  0  0  0  0  0  0  0
   -4.9927   -1.4979    4.1544 H   0  0  0  0  0  0  0  0  0  0  0  0
   -5.6993   -0.4031    0.2704 N   0  0  0  0  0  0  0  0  0  0  0  0
   -4.0822    0.1537   -2.1481 C   0  0  0  0  0  0  0  0  0  0  0  0
   -3.7990   -0.5575   -1.3836 H   0  0  0  0  0  0  0  0  0  0  0  0
    0.6301    0.9944   -2.0281 C   0  0  0  0  0  0  0  0  0  0  0  0
    1.8585    0.8229   -2.6899 C   0  0  0  0  0  0  0  0  0  0  0  0
    1.8892    0.6122   -3.7509 H   0  0  0  0  0  0  0  0  0  0  0  0
    3.0643    0.9146   -1.9862 C   0  0  0  0  0  0  0  0  0  0  0  0
    3.9980    0.7834   -2.5204 H   0  0  0  0  0  0  0  0  0  0  0  0
    3.0652    1.1793   -0.6085 C   0  0  0  0  0  0  0  0  0  0  0  0
    4.3650    1.2627    0.1650 C   0  0  0  0  0  0  0  0  0  0  0  0
    5.1322    1.7704   -0.4603 H   0  0  0  0  0  0  0  0  0  0  0  0
    4.2305    1.9163    1.0535 H   0  0  0  0  0  0  0  0  0  0  0  0
    4.8835   -0.0480    0.6154 N   0  0  0  0  0  0  0  0  0  0  0  0
    3.9597   -0.7745    1.5110 C   0  0  0  0  0  0  0  0  0  0  0  0
    3.8731   -0.2152    2.4671 H   0  0  0  0  0  0  0  0  0  0  0  0
    2.9461   -0.8584    1.0669 H   0  0  0  0  0  0  0  0  0  0  0  0
    4.4627   -2.2044    1.8082 C   0  0  0  0  0  0  0  0  0  0  0  0
    3.8857   -2.9262    1.1883 H   0  0  0  0  0  0  0  0  0  0  0  0
    4.2441   -2.4695    2.8646 H   0  0  0  0  0  0  0  0  0  0  0  0
    5.9000   -2.3775    1.5018 N   0  0  0  0  0  0  0  0  0  0  0  0
    6.7821   -1.6652    2.4578 C   0  0  0  0  0  0  0  0  0  0  0  0
    7.7944   -1.5126    2.0256 H   0  0  0  0  0  0  0  0  0  0  0  0
    6.3816   -0.6630    2.7207 H   0  0  0  0  0  0  0  0  0  0  0  0
    6.9675   -2.4943    3.7331 C   0  0  0  0  0  0  0  0  0  0  0  0
    6.0084   -2.6017    4.2846 H   0  0  0  0  0  0  0  0  0  0  0  0
    7.3123   -3.5136    3.4589 H   0  0  0  0  0  0  0  0  0  0  0  0
    7.9333   -1.9085    4.5642 O   0  0  0  0  0  0  0  0  0  0  0  0
    7.5130   -1.1010    4.9606 H   0  0  0  0  0  0  0  0  0  0  0  0
    6.1943   -2.0684    0.0798 C   0  0  0  0  0  0  0  0  0  0  0  0
    7.2749   -1.8546   -0.0743 H   0  0  0  0  0  0  0  0  0  0  0  0
    5.9849   -2.9767   -0.5269 H   0  0  0  0  0  0  0  0  0  0  0  0
    5.3517   -0.9051   -0.4821 C   0  0  0  0  0  0  0  0  0  0  0  0
    5.9774   -0.3223   -1.1939 H   0  0  0  0  0  0  0  0  0  0  0  0
    4.4824   -1.3176   -1.0443 H   0  0  0  0  0  0  0  0  0  0  0  0
    1.8415    1.3686    0.0517 C   0  0  0  0  0  0  0  0  0  0  0  0
    1.8205    1.5783    1.1130 H   0  0  0  0  0  0  0  0  0  0  0  0
    0.6364    1.2709   -0.6479 C   0  0  0  0  0  0  0  0  0  0  0  0
   -0.2906    1.4132   -0.1056 H   0  0  0  0  0  0  0  0  0  0  0  0
  1  2  1  0
  2  3  1  0
  3  4  2  0
  4  5  1  0
  5  6  2  0
  6  7  1  0
  6  8  1  0
  8  9  1  0
  8 10  2  0
 10 11  1  0
 11 12  1  0
 11 13  1  0
 11 14  1  0
 10 15  1  0
 15 16  1  0
 16 17  1  0
 16 18  1  0
 18 19  2  0
 19 20  1  0
 20 21  1  0
 20 22  2  0
 22 23  1  0
 22 24  1  0
 24 25  1  0
 25 26  2  0
 26 27  1  0
 26 28  1  0
 28 29  2  0
 29 30  1  0
 29 31  1  0
 31 32  1  0
 31 33  2  0
 33 34  1  0
 24 35  2  0
 15 36  2  0
 36 37  1  0
  3 38  1  0
 38 39  2  0
 39 40  1  0
 39 41  1  0
 41 42  1  0
 41 43  2  0
 43 44  1  0
 44 45  1  0
 44 46  1  0
 44 47  1  0
 47 48  1  0
 48 49  1  0
 48 50  1  0
 48 51  1  0
 51 52  1  0
 51 53  1  0
 51 54  1  0
 54 55  1  0
 55 56  1  0
 55 57  1  0
 55 58  1  0
 58 59  1  0
 58 60  1  0
 58 61  1  0
 61 62  1  0
 54 63  1  0
 63 64  1  0
 63 65  1  0
 63 66  1  0
 66 67  1  0
 66 68  1  0
 43 69  1  0
 69 70  1  0
 69 71  2  0
 71 72  1  0
 36  5  1  0
 71 38  1  0
 35 18  1  0
 66 47  1  0
 33 25  1  0
M  END
>  <UniqueID>  (8) 
8

>  <SMILES>  (8) 
Cc1ccc(/N=C(\O)c2ccc(CN3CCN(CCO)CC3)cc2)cc1Nc1nccc(-c2cccnc2)n1

>  <Energy>  (8) 
108.35817653819505

>  <Genealogy>  (8) 
Cc1ccc(N=C(O)c2ccc(CN3CCN(CCO)CC3)cc2)cc1Nc1nccc(-c2cccnc2)n1 (tautomer)
Cc1ccc(/N=C(\O)c2ccc(CN3CCN(CCO)CC3)cc2)cc1Nc1nccc(-c2cccnc2)n1 (cis-trans isomerization)
Cc1ccc(/N=C(\O)c2ccc(CN3CCN(CCO)CC3)cc2)cc1Nc1nccc(-c2cccnc2)n1 (3D coordinates assigned)
Cc1ccc(/N=C(\O)c2ccc(CN3CCN(CCO)CC3)cc2)cc1Nc1nccc(-c2cccnc2)n1 (nonaromatic ring conformer: 108.35817653819505 kcal/mol)

$$$$
CHEMBL3098615
     RDKit          3D

 73 77  0  0  0  0  0  0  0  0999 V2000
    1.2473    4.7126   -0.4834 H   0  0  0  0  0  0  0  0  0  0  0  0
    0.9658    3.8068   -0.8359 O   0  0  0  0  0  0  0  0  0  0  0  0
    0.5714    2.7872    0.0264 C   0  0  0  0  0  0  0  0  0  0  0  0
    0.5848    3.0103    1.3126 N   0  0  0  0  0  0  0  0  0  0  0  0
    0.1060    2.1320    2.3425 C   0  0  0  0  0  0  0  0  0  0  0  0
   -1.1650    1.5452    2.2655 C   0  0  0  0  0  0  0  0  0  0  0  0
   -1.8182    1.7568    1.4276 H   0  0  0  0  0  0  0  0  0  0  0  0
   -1.6073    0.6891    3.2759 C   0  0  0  0  0  0  0  0  0  0  0  0
   -2.5946    0.2460    3.1930 H   0  0  0  0  0  0  0  0  0  0  0  0
   -0.7826    0.3968    4.3745 C   0  0  0  0  0  0  0  0  0  0  0  0
   -1.2785   -0.5380    5.4419 C   0  0  0  0  0  0  0  0  0  0  0  0
   -1.4948    0.0368    6.3685 H   0  0  0  0  0  0  0  0  0  0  0  0
   -2.2120   -1.0570    5.1323 H   0  0  0  0  0  0  0  0  0  0  0  0
   -0.5122   -1.3124    5.6525 H   0  0  0  0  0  0  0  0  0  0  0  0
    0.4897    1.0055    4.4697 C   0  0  0  0  0  0  0  0  0  0  0  0
    1.3478    0.7395    5.5917 N   0  0  0  0  0  0  0  0  0  0  0  0
    0.9214    0.6316    6.5393 H   0  0  0  0  0  0  0  0  0  0  0  0
    2.7465    0.4492    5.4500 C   0  0  0  0  0  0  0  0  0  0  0  0
    3.5035    0.2150    6.5547 N   0  0  0  0  0  0  0  0  0  0  0  0
    4.8243   -0.0850    6.4457 C   0  0  0  0  0  0  0  0  0  0  0  0
    5.4101   -0.2632    7.3360 H   0  0  0  0  0  0  0  0  0  0  0  0
    5.4246   -0.1592    5.1885 C   0  0  0  0  0  0  0  0  0  0  0  0
    6.4864   -0.3700    5.1303 H   0  0  0  0  0  0  0  0  0  0  0  0
    4.6343    0.0715    4.0476 C   0  0  0  0  0  0  0  0  0  0  0  0
    5.1850    0.0180    2.6647 C   0  0  0  0  0  0  0  0  0  0  0  0
    4.4689    0.6070    1.6026 C   0  0  0  0  0  0  0  0  0  0  0  0
    3.5318    1.1251    1.7770 H   0  0  0  0  0  0  0  0  0  0  0  0
    4.9491    0.5501    0.3333 N   0  0  0  0  0  0  0  0  0  0  0  0
    6.1245   -0.0634    0.0381 C   0  0  0  0  0  0  0  0  0  0  0  0
    6.4728   -0.0860   -0.9826 H   0  0  0  0  0  0  0  0  0  0  0  0
    6.8718   -0.6671    1.0494 C   0  0  0  0  0  0  0  0  0  0  0  0
    7.8066   -1.1668    0.8165 H   0  0  0  0  0  0  0  0  0  0  0  0
    6.4002   -0.6333    2.3614 C   0  0  0  0  0  0  0  0  0  0  0  0
    6.9786   -1.1440    3.1214 H   0  0  0  0  0  0  0  0  0  0  0  0
    3.3157    0.3647    4.2189 N   0  0  0  0  0  0  0  0  0  0  0  0
    0.9026    1.9005    3.4660 C   0  0  0  0  0  0  0  0  0  0  0  0
    1.8564    2.4067    3.5453 H   0  0  0  0  0  0  0  0  0  0  0  0
    0.1627    1.4901   -0.5645 C   0  0  0  0  0  0  0  0  0  0  0  0
   -0.6843    1.4783   -1.6834 C   0  0  0  0  0  0  0  0  0  0  0  0
   -1.0462    2.4069   -2.1068 H   0  0  0  0  0  0  0  0  0  0  0  0
   -1.1137    0.2669   -2.2279 C   0  0  0  0  0  0  0  0  0  0  0  0
   -1.7907    0.2786   -3.0729 H   0  0  0  0  0  0  0  0  0  0  0  0
   -0.6991   -0.9526   -1.6688 C   0  0  0  0  0  0  0  0  0  0  0  0
   -1.2061   -2.2519   -2.2365 C   0  0  0  0  0  0  0  0  0  0  0  0
   -0.8354   -3.1218   -1.6497 H   0  0  0  0  0  0  0  0  0  0  0  0
   -0.7863   -2.3518   -3.2635 H   0  0  0  0  0  0  0  0  0  0  0  0
   -2.6835   -2.2441   -2.2789 N   0  0  0  0  0  0  0  0  0  0  0  0
   -3.1906   -3.2226   -3.2634 C   0  0  0  0  0  0  0  0  0  0  0  0
   -2.6281   -4.1841   -3.2030 H   0  0  0  0  0  0  0  0  0  0  0  0
   -3.0420   -2.8042   -4.2836 H   0  0  0  0  0  0  0  0  0  0  0  0
   -4.6953   -3.5130   -3.0664 C   0  0  0  0  0  0  0  0  0  0  0  0
   -5.1804   -3.7111   -4.0458 H   0  0  0  0  0  0  0  0  0  0  0  0
   -4.7966   -4.4678   -2.4990 H   0  0  0  0  0  0  0  0  0  0  0  0
   -5.3912   -2.4308   -2.3260 N   0  0  0  0  0  0  0  0  0  0  0  0
   -6.3752   -2.7501   -2.1693 H   0  0  0  0  0  0  0  0  0  0  0  0
   -5.4653   -1.1478   -3.0780 C   0  0  0  0  0  0  0  0  0  0  0  0
   -4.4514   -0.7620   -3.3175 H   0  0  0  0  0  0  0  0  0  0  0  0
   -5.9712   -0.3802   -2.4475 H   0  0  0  0  0  0  0  0  0  0  0  0
   -6.2797   -1.2612   -4.3776 C   0  0  0  0  0  0  0  0  0  0  0  0
   -7.2244   -1.8314   -4.2049 H   0  0  0  0  0  0  0  0  0  0  0  0
   -5.6899   -1.8016   -5.1475 H   0  0  0  0  0  0  0  0  0  0  0  0
   -6.5660    0.0178   -4.8763 O   0  0  0  0  0  0  0  0  0  0  0  0
   -7.3754    0.3326   -4.3955 H   0  0  0  0  0  0  0  0  0  0  0  0
   -4.7852   -2.2408   -0.9773 C   0  0  0  0  0  0  0  0  0  0  0  0
   -5.2611   -2.9395   -0.2506 H   0  0  0  0  0  0  0  0  0  0  0  0
   -4.9920   -1.2173   -0.5884 H   0  0  0  0  0  0  0  0  0  0  0  0
   -3.2637   -2.4946   -0.9469 C   0  0  0  0  0  0  0  0  0  0  0  0
   -2.8107   -1.8185   -0.1886 H   0  0  0  0  0  0  0  0  0  0  0  0
   -3.0576   -3.5479   -0.6317 H   0  0  0  0  0  0  0  0  0  0  0  0
    0.2009   -0.9436   -0.5948 C   0  0  0  0  0  0  0  0  0  0  0  0
    0.5671   -1.8710   -0.1709 H   0  0  0  0  0  0  0  0  0  0  0  0
    0.6365    0.2702   -0.0523 C   0  0  0  0  0  0  0  0  0  0  0  0
    1.3377    0.2534    0.7699 H   0  0  0  0  0  0  0  0  0  0  0  0
  1  2  1  0
  2  3  1  0
  3  4  2  0
  4  5  1  0
  5  6  2  0
  6  7  1  0
  6  8  1  0
  8  9  1  0
  8 10  2  0
 10 11  1  0
 11 12  1  0
 11 13  1  0
 11 14  1  0
 10 15  1  0
 15 16  1  0
 16 17  1  0
 16 18  1  0
 18 19  2  0
 19 20  1  0
 20 21  1  0
 20 22  2  0
 22 23  1  0
 22 24  1  0
 24 25  1  0
 25 26  2  0
 26 27  1  0
 26 28  1  0
 28 29  2  0
 29 30  1  0
 29 31  1  0
 31 32  1  0
 31 33  2  0
 33 34  1  0
 24 35  2  0
 15 36  2  0
 36 37  1  0
  3 38  1  0
 38 39  2  0
 39 40  1  0
 39 41  1  0
 41 42  1  0
 41 43  2  0
 43 44  1  0
 44 45  1  0
 44 46  1  0
 44 47  1  0
 47 48  1  0
 48 49  1  0
 48 50  1  0
 48 51  1  0
 51 52  1  0
 51 53  1  0
 51 54  1  0
 54 55  1  0
 54 56  1  0
 56 57  1  0
 56 58  1  0
 56 59  1  0
 59 60  1  0
 59 61  1  0
 59 62  1  0
 62 63  1  0
 54 64  1  0
 64 65  1  0
 64 66  1  0
 64 67  1  0
 67 68  1  0
 67 69  1  0
 43 70  1  0
 70 71  1  0
 70 72  2  0
 72 73  1  0
 36  5  1  0
 72 38  1  0
 35 18  1  0
 67 47  1  0
 33 25  1  0
M  CHG  1  54   1
M  END
>  <UniqueID>  (9) 
9

>  <SMILES>  (9) 
Cc1ccc(/N=C(/O)c2ccc(CN3CC[NH+](CCO)CC3)cc2)cc1Nc1nccc(-c2cccnc2)n1

>  <Energy>  (9) 
108.43969972640566

>  <Genealogy>  (9) 
Cc1ccc(NC(=O)c2ccc(CN3CC[NH+](CCO)CC3)cc2)cc1Nc1nccc(-c2cccnc2)n1 (protonated)
Cc1ccc(N=C(O)c2ccc(CN3CC[NH+](CCO)CC3)cc2)cc1Nc1nccc(-c2cccnc2)n1 (tautomer)
Cc1ccc(/N=C(/O)c2ccc(CN3CC[NH+](CCO)CC3)cc2)cc1Nc1nccc(-c2cccnc2)n1 (cis-trans isomerization)
Cc1ccc(/N=C(/O)c2ccc(CN3CC[NH+](CCO)CC3)cc2)cc1Nc1nccc(-c2cccnc2)n1 (3D coordinates assigned)
Cc1ccc(/N=C(/O)c2ccc(CN3CC[NH+](CCO)CC3)cc2)cc1Nc1nccc(-c2cccnc2)n1 (nonaromatic ring conformer: 108.43969972640566 kcal/mol)

$$$$
CHEMBL3098616
     RDKit          3D

 72 76  0  0  0  0  0  0  0  0999 V2000
    6.3472   -2.3140    3.7472 H   0  0  0  0  0  0  0  0  0  0  0  0
    5.5005   -1.8812    4.2638 C   0  0  0  0  0  0  0  0  0  0  0  0
    4.4030   -1.4958    3.5636 N   0  0  0  0  0  0  0  0  0  0  0  0
    3.3189   -0.9453    4.1739 C   0  0  0  0  0  0  0  0  0  0  0  0
    2.4624   -0.6714    3.5707 H   0  0  0  0  0  0  0  0  0  0  0  0
    3.3062   -0.7608    5.5678 C   0  0  0  0  0  0  0  0  0  0  0  0
    2.1354   -0.1378    6.2396 C   0  0  0  0  0  0  0  0  0  0  0  0
    1.7140   -0.5883    7.4994 C   0  0  0  0  0  0  0  0  0  0  0  0
    2.2022   -1.4160    7.9976 H   0  0  0  0  0  0  0  0  0  0  0  0
    0.6355    0.0426    8.1108 C   0  0  0  0  0  0  0  0  0  0  0  0
    0.2943   -0.2825    9.0839 H   0  0  0  0  0  0  0  0  0  0  0  0
    0.0087    1.0695    7.4862 N   0  0  0  0  0  0  0  0  0  0  0  0
    0.4029    1.4981    6.2597 C   0  0  0  0  0  0  0  0  0  0  0  0
   -0.2278    2.5025    5.7188 N   0  0  0  0  0  0  0  0  0  0  0  0
   -0.0061    3.0268    4.4019 C   0  0  0  0  0  0  0  0  0  0  0  0
   -0.2569    2.2217    3.2798 C   0  0  0  0  0  0  0  0  0  0  0  0
   -0.5781    1.1972    3.4248 H   0  0  0  0  0  0  0  0  0  0  0  0
   -0.0853    2.7315    1.9834 C   0  0  0  0  0  0  0  0  0  0  0  0
   -0.3477    1.9204    0.8275 N   0  0  0  0  0  0  0  0  0  0  0  0
    0.2054    2.1118   -0.0379 H   0  0  0  0  0  0  0  0  0  0  0  0
   -1.4785    1.0375    0.7306 C   0  0  0  0  0  0  0  0  0  0  0  0
   -2.4066    1.1108    1.5815 O   0  0  0  0  0  0  0  0  0  0  0  0
   -1.6036    0.0831   -0.3950 C   0  0  0  0  0  0  0  0  0  0  0  0
   -0.4613   -0.4219   -1.0406 C   0  0  0  0  0  0  0  0  0  0  0  0
    0.5321   -0.1431   -0.7100 H   0  0  0  0  0  0  0  0  0  0  0  0
   -0.5885   -1.3202   -2.1048 C   0  0  0  0  0  0  0  0  0  0  0  0
    0.3050   -1.6994   -2.5854 H   0  0  0  0  0  0  0  0  0  0  0  0
   -1.8588   -1.7244   -2.5479 C   0  0  0  0  0  0  0  0  0  0  0  0
   -1.9973   -2.6767   -3.7189 C   0  0  0  0  0  0  0  0  0  0  0  0
   -2.8990   -3.3115   -3.5723 H   0  0  0  0  0  0  0  0  0  0  0  0
   -1.1411   -3.3875   -3.7255 H   0  0  0  0  0  0  0  0  0  0  0  0
   -2.0859   -2.0006   -5.0345 N   0  0  0  0  0  0  0  0  0  0  0  0
   -0.8513   -1.2787   -5.3908 C   0  0  0  0  0  0  0  0  0  0  0  0
    0.0119   -1.9804   -5.3590 H   0  0  0  0  0  0  0  0  0  0  0  0
   -0.6436   -0.4573   -4.6743 H   0  0  0  0  0  0  0  0  0  0  0  0
   -0.9571   -0.7163   -6.8199 C   0  0  0  0  0  0  0  0  0  0  0  0
   -0.9921   -1.5764   -7.5271 H   0  0  0  0  0  0  0  0  0  0  0  0
   -0.0302   -0.1554   -7.0617 H   0  0  0  0  0  0  0  0  0  0  0  0
   -2.1642    0.1250   -7.0194 N   0  0  0  0  0  0  0  0  0  0  0  0
   -2.2670    0.2793   -8.0502 H   0  0  0  0  0  0  0  0  0  0  0  0
   -2.0711    1.4596   -6.3669 C   0  0  0  0  0  0  0  0  0  0  0  0
   -1.7338    1.3755   -5.3120 H   0  0  0  0  0  0  0  0  0  0  0  0
   -3.0750    1.9448   -6.3371 H   0  0  0  0  0  0  0  0  0  0  0  0
   -1.1342    2.4272   -7.1050 C   0  0  0  0  0  0  0  0  0  0  0  0
   -0.0863    2.0691   -7.0811 H   0  0  0  0  0  0  0  0  0  0  0  0
   -1.1633    3.4154   -6.5979 H   0  0  0  0  0  0  0  0  0  0  0  0
   -1.5385    2.5976   -8.4168 F   0  0  0  0  0  0  0  0  0  0  0  0
   -3.3813   -0.6078   -6.5931 C   0  0  0  0  0  0  0  0  0  0  0  0
   -4.2863    0.0335   -6.6874 H   0  0  0  0  0  0  0  0  0  0  0  0
   -3.5467   -1.4767   -7.2703 H   0  0  0  0  0  0  0  0  0  0  0  0
   -3.2670   -1.1282   -5.1533 C   0  0  0  0  0  0  0  0  0  0  0  0
   -4.1877   -1.7067   -4.9164 H   0  0  0  0  0  0  0  0  0  0  0  0
   -3.2080   -0.2713   -4.4495 H   0  0  0  0  0  0  0  0  0  0  0  0
   -2.9991   -1.2386   -1.8890 C   0  0  0  0  0  0  0  0  0  0  0  0
   -3.9866   -1.5493   -2.2069 H   0  0  0  0  0  0  0  0  0  0  0  0
   -2.8738   -0.3449   -0.8214 C   0  0  0  0  0  0  0  0  0  0  0  0
   -3.7703    0.0233   -0.3376 H   0  0  0  0  0  0  0  0  0  0  0  0
    0.3728    4.0451    1.8190 C   0  0  0  0  0  0  0  0  0  0  0  0
    0.5343    4.4466    0.8263 H   0  0  0  0  0  0  0  0  0  0  0  0
    0.6032    4.8581    2.9303 C   0  0  0  0  0  0  0  0  0  0  0  0
    0.9413    5.8751    2.7748 H   0  0  0  0  0  0  0  0  0  0  0  0
    0.3951    4.3658    4.2277 C   0  0  0  0  0  0  0  0  0  0  0  0
    0.6572    5.2453    5.4168 C   0  0  0  0  0  0  0  0  0  0  0  0
    0.8758    6.2913    5.1128 H   0  0  0  0  0  0  0  0  0  0  0  0
   -0.2328    5.2548    6.0810 H   0  0  0  0  0  0  0  0  0  0  0  0
    1.5278    4.8527    5.9836 H   0  0  0  0  0  0  0  0  0  0  0  0
    1.4678    0.8959    5.6438 N   0  0  0  0  0  0  0  0  0  0  0  0
    1.8196    1.2588    4.7311 H   0  0  0  0  0  0  0  0  0  0  0  0
    4.4344   -1.1651    6.3022 C   0  0  0  0  0  0  0  0  0  0  0  0
    4.4741   -1.0309    7.3755 H   0  0  0  0  0  0  0  0  0  0  0  0
    5.5328   -1.7301    5.6509 C   0  0  0  0  0  0  0  0  0  0  0  0
    6.4066   -2.0352    6.2128 H   0  0  0  0  0  0  0  0  0  0  0  0
  1  2  1  0
  2  3  2  0
  3  4  1  0
  4  5  1  0
  4  6  2  0
  6  7  1  0
  7  8  2  0
  8  9  1  0
  8 10  1  0
 10 11  1  0
 10 12  2  0
 12 13  1  0
 13 14  2  0
 14 15  1  0
 15 16  2  0
 16 17  1  0
 16 18  1  0
 18 19  1  0
 19 20  1  0
 19 21  1  0
 21 22  2  0
 21 23  1  0
 23 24  2  0
 24 25  1  0
 24 26  1  0
 26 27  1  0
 26 28  2  0
 28 29  1  0
 29 30  1  0
 29 31  1  0
 29 32  1  0
 32 33  1  0
 33 34  1  0
 33 35  1  0
 33 36  1  0
 36 37  1  0
 36 38  1  0
 36 39  1  0
 39 40  1  0
 39 41  1  0
 41 42  1  0
 41 43  1  0
 41 44  1  0
 44 45  1  0
 44 46  1  0
 44 47  1  0
 39 48  1  0
 48 49  1  0
 48 50  1  0
 48 51  1  0
 51 52  1  0
 51 53  1  0
 28 54  1  0
 54 55  1  0
 54 56  2  0
 56 57  1  0
 18 58  2  0
 58 59  1  0
 58 60  1  0
 60 61  1  0
 60 62  2  0
 62 63  1  0
 63 64  1  0
 63 65  1  0
 63 66  1  0
 13 67  1  0
 67 68  1  0
  6 69  1  0
 69 70  1  0
 69 71  2  0
 71 72  1  0
 71  2  1  0
 67  7  1  0
 62 15  1  0
 56 23  1  0
 51 32  1  0
M  CHG  1  39   1
M  END
>  <UniqueID>  (10) 
10

>  <SMILES>  (10) 
Cc1ccc(NC(=O)c2ccc(CN3CC[NH+](CCF)CC3)cc2)cc1/N=c1/nccc(-c2cccnc2)[nH]1

>  <Energy>  (10) 
104.29248631700811

>  <Genealogy>  (10) 
Cc1ccc(NC(=O)c2ccc(CN3CC[NH+](CCF)CC3)cc2)cc1Nc1nccc(-c2cccnc2)n1 (protonated)
Cc1ccc(NC(=O)c2ccc(CN3CC[NH+](CCF)CC3)cc2)cc1N=c1nccc(-c2cccnc2)[nH]1 (tautomer)
Cc1ccc(NC(=O)c2ccc(CN3CC[NH+](CCF)CC3)cc2)cc1/N=c1/nccc(-c2cccnc2)[nH]1 (cis-trans isomerization)
Cc1ccc(NC(=O)c2ccc(CN3CC[NH+](CCF)CC3)cc2)cc1/N=c1/nccc(-c2cccnc2)[nH]1 (3D coordinates assigned)
Cc1ccc(NC(=O)c2ccc(CN3CC[NH+](CCF)CC3)cc2)cc1/N=c1/nccc(-c2cccnc2)[nH]1 (nonaromatic ring conformer: 104.29248631700811 kcal/mol)

$$$$
CHEMBL3098616
     RDKit          3D

 72 76  0  0  0  0  0  0  0  0999 V2000
    2.9127   -2.3913    0.9827 H   0  0  0  0  0  0  0  0  0  0  0  0
    1.9528   -2.5787    0.7251 O   0  0  0  0  0  0  0  0  0  0  0  0
    1.2556   -1.8257   -0.2251 C   0  0  0  0  0  0  0  0  0  0  0  0
    1.8608   -0.9639   -0.9954 N   0  0  0  0  0  0  0  0  0  0  0  0
    3.2742   -0.7391   -1.0964 C   0  0  0  0  0  0  0  0  0  0  0  0
    4.1807   -1.8031   -1.2126 C   0  0  0  0  0  0  0  0  0  0  0  0
    3.8284   -2.8263   -1.2138 H   0  0  0  0  0  0  0  0  0  0  0  0
    5.5468   -1.5517   -1.3522 C   0  0  0  0  0  0  0  0  0  0  0  0
    6.2295   -2.3893   -1.4332 H   0  0  0  0  0  0  0  0  0  0  0  0
    6.0306   -0.2336   -1.3883 C   0  0  0  0  0  0  0  0  0  0  0  0
    7.5091    0.0052   -1.5355 C   0  0  0  0  0  0  0  0  0  0  0  0
    7.8385    0.8242   -0.8624 H   0  0  0  0  0  0  0  0  0  0  0  0
    7.7363    0.2757   -2.5871 H   0  0  0  0  0  0  0  0  0  0  0  0
    8.0908   -0.9032   -1.2699 H   0  0  0  0  0  0  0  0  0  0  0  0
    5.1172    0.8436   -1.3223 C   0  0  0  0  0  0  0  0  0  0  0  0
    5.5778    2.2036   -1.4300 N   0  0  0  0  0  0  0  0  0  0  0  0
    6.3845    2.4148   -2.0612 H   0  0  0  0  0  0  0  0  0  0  0  0
    5.0378    3.2873   -0.6603 C   0  0  0  0  0  0  0  0  0  0  0  0
    5.3733    4.5676   -0.9699 N   0  0  0  0  0  0  0  0  0  0  0  0
    4.8921    5.6099   -0.2446 C   0  0  0  0  0  0  0  0  0  0  0  0
    5.1803    6.6213   -0.4975 H   0  0  0  0  0  0  0  0  0  0  0  0
    4.0443    5.3766    0.8381 C   0  0  0  0  0  0  0  0  0  0  0  0
    3.6966    6.2155    1.4239 H   0  0  0  0  0  0  0  0  0  0  0  0
    3.7100    4.0502    1.1616 C   0  0  0  0  0  0  0  0  0  0  0  0
    2.8203    3.7104    2.3049 C   0  0  0  0  0  0  0  0  0  0  0  0
    2.8715    2.4260    2.8783 C   0  0  0  0  0  0  0  0  0  0  0  0
    3.5656    1.6816    2.5096 H   0  0  0  0  0  0  0  0  0  0  0  0
    2.0533    2.0993    3.9144 N   0  0  0  0  0  0  0  0  0  0  0  0
    1.1603    2.9842    4.4277 C   0  0  0  0  0  0  0  0  0  0  0  0
    0.5225    2.6905    5.2512 H   0  0  0  0  0  0  0  0  0  0  0  0
    1.0619    4.2665    3.8897 C   0  0  0  0  0  0  0  0  0  0  0  0
    0.3470    4.9739    4.2907 H   0  0  0  0  0  0  0  0  0  0  0  0
    1.8888    4.6298    2.8255 C   0  0  0  0  0  0  0  0  0  0  0  0
    1.7749    5.6181    2.4032 H   0  0  0  0  0  0  0  0  0  0  0  0
    4.2295    3.0433    0.4063 N   0  0  0  0  0  0  0  0  0  0  0  0
    3.7422    0.5737   -1.1992 C   0  0  0  0  0  0  0  0  0  0  0  0
    3.0257    1.3870   -1.1939 H   0  0  0  0  0  0  0  0  0  0  0  0
   -0.2136   -1.9842   -0.3206 C   0  0  0  0  0  0  0  0  0  0  0  0
   -0.8435   -3.0894    0.2761 C   0  0  0  0  0  0  0  0  0  0  0  0
   -0.2631   -3.8429    0.7948 H   0  0  0  0  0  0  0  0  0  0  0  0
   -2.2314   -3.2430    0.1977 C   0  0  0  0  0  0  0  0  0  0  0  0
   -2.6957   -4.1079    0.6544 H   0  0  0  0  0  0  0  0  0  0  0  0
   -3.0160   -2.2851   -0.4617 C   0  0  0  0  0  0  0  0  0  0  0  0
   -4.5077   -2.4689   -0.5592 C   0  0  0  0  0  0  0  0  0  0  0  0
   -5.0079   -1.5026   -0.7828 H   0  0  0  0  0  0  0  0  0  0  0  0
   -4.8600   -2.7812    0.4495 H   0  0  0  0  0  0  0  0  0  0  0  0
   -4.8441   -3.5001   -1.5679 N   0  0  0  0  0  0  0  0  0  0  0  0
   -6.2074   -4.0636   -1.3922 C   0  0  0  0  0  0  0  0  0  0  0  0
   -6.6250   -3.8288   -0.3878 H   0  0  0  0  0  0  0  0  0  0  0  0
   -6.1373   -5.1710   -1.4441 H   0  0  0  0  0  0  0  0  0  0  0  0
   -7.2154   -3.5910   -2.4621 C   0  0  0  0  0  0  0  0  0  0  0  0
   -8.2430   -3.7285   -2.0556 H   0  0  0  0  0  0  0  0  0  0  0  0
   -7.1292   -4.2350   -3.3664 H   0  0  0  0  0  0  0  0  0  0  0  0
   -6.9758   -2.1806   -2.8212 N   0  0  0  0  0  0  0  0  0  0  0  0
   -7.0318   -1.6165   -1.9395 H   0  0  0  0  0  0  0  0  0  0  0  0
   -8.0489   -1.7027   -3.7252 C   0  0  0  0  0  0  0  0  0  0  0  0
   -9.0465   -1.9134   -3.2729 H   0  0  0  0  0  0  0  0  0  0  0  0
   -8.0089   -2.2365   -4.7017 H   0  0  0  0  0  0  0  0  0  0  0  0
   -7.9750   -0.1897   -3.9678 C   0  0  0  0  0  0  0  0  0  0  0  0
   -7.0508    0.0741   -4.5217 H   0  0  0  0  0  0  0  0  0  0  0  0
   -7.9850    0.3543   -3.0000 H   0  0  0  0  0  0  0  0  0  0  0  0
   -9.0633    0.2148   -4.7176 F   0  0  0  0  0  0  0  0  0  0  0  0
   -5.6297   -2.0027   -3.4290 C   0  0  0  0  0  0  0  0  0  0  0  0
   -5.2437   -0.9906   -3.1728 H   0  0  0  0  0  0  0  0  0  0  0  0
   -5.6746   -2.0574   -4.5408 H   0  0  0  0  0  0  0  0  0  0  0  0
   -4.5997   -3.0527   -2.9555 C   0  0  0  0  0  0  0  0  0  0  0  0
   -3.5704   -2.6551   -3.0736 H   0  0  0  0  0  0  0  0  0  0  0  0
   -4.6536   -3.9389   -3.6259 H   0  0  0  0  0  0  0  0  0  0  0  0
   -2.3922   -1.1793   -1.0570 C   0  0  0  0  0  0  0  0  0  0  0  0
   -2.9788   -0.4353   -1.5805 H   0  0  0  0  0  0  0  0  0  0  0  0
   -1.0034   -1.0319   -0.9922 C   0  0  0  0  0  0  0  0  0  0  0  0
   -0.5514   -0.1666   -1.4596 H   0  0  0  0  0  0  0  0  0  0  0  0
  1  2  1  0
  2  3  1  0
  3  4  2  0
  4  5  1  0
  5  6  2  0
  6  7  1  0
  6  8  1  0
  8  9  1  0
  8 10  2  0
 10 11  1  0
 11 12  1  0
 11 13  1  0
 11 14  1  0
 10 15  1  0
 15 16  1  0
 16 17  1  0
 16 18  1  0
 18 19  2  0
 19 20  1  0
 20 21  1  0
 20 22  2  0
 22 23  1  0
 22 24  1  0
 24 25  1  0
 25 26  2  0
 26 27  1  0
 26 28  1  0
 28 29  2  0
 29 30  1  0
 29 31  1  0
 31 32  1  0
 31 33  2  0
 33 34  1  0
 24 35  2  0
 15 36  2  0
 36 37  1  0
  3 38  1  0
 38 39  2  0
 39 40  1  0
 39 41  1  0
 41 42  1  0
 41 43  2  0
 43 44  1  0
 44 45  1  0
 44 46  1  0
 44 47  1  0
 47 48  1  0
 48 49  1  0
 48 50  1  0
 48 51  1  0
 51 52  1  0
 51 53  1  0
 51 54  1  0
 54 55  1  0
 54 56  1  0
 56 57  1  0
 56 58  1  0
 56 59  1  0
 59 60  1  0
 59 61  1  0
 59 62  1  0
 54 63  1  0
 63 64  1  0
 63 65  1  0
 63 66  1  0
 66 67  1  0
 66 68  1  0
 43 69  1  0
 69 70  1  0
 69 71  2  0
 71 72  1  0
 36  5  1  0
 71 38  1  0
 35 18  1  0
 66 47  1  0
 33 25  1  0
M  CHG  1  54   1
M  END
>  <UniqueID>  (11) 
11

>  <SMILES>  (11) 
Cc1ccc(/N=C(\O)c2ccc(CN3CC[NH+](CCF)CC3)cc2)cc1Nc1nccc(-c2cccnc2)n1

>  <Energy>  (11) 
106.64967271805818

>  <Genealogy>  (11) 
Cc1ccc(NC(=O)c2ccc(CN3CC[NH+](CCF)CC3)cc2)cc1Nc1nccc(-c2cccnc2)n1 (protonated)
Cc1ccc(N=C(O)c2ccc(CN3CC[NH+](CCF)CC3)cc2)cc1Nc1nccc(-c2cccnc2)n1 (tautomer)
Cc1ccc(/N=C(\O)c2ccc(CN3CC[NH+](CCF)CC3)cc2)cc1Nc1nccc(-c2cccnc2)n1 (cis-trans isomerization)
Cc1ccc(/N=C(\O)c2ccc(CN3CC[NH+](CCF)CC3)cc2)cc1Nc1nccc(-c2cccnc2)n1 (3D coordinates assigned)
Cc1ccc(/N=C(\O)c2ccc(CN3CC[NH+](CCF)CC3)cc2)cc1Nc1nccc(-c2cccnc2)n1 (nonaromatic ring conformer: 106.64967271805818 kcal/mol)

$$$$
CHEMBL3098616
     RDKit          3D

 72 76  0  0  0  0  0  0  0  0999 V2000
    3.0295   -0.4324   -3.3205 H   0  0  0  0  0  0  0  0  0  0  0  0
    2.1754   -0.9713   -3.2719 O   0  0  0  0  0  0  0  0  0  0  0  0
    1.7073   -1.5703   -2.0979 C   0  0  0  0  0  0  0  0  0  0  0  0
    2.4322   -1.6044   -1.0149 N   0  0  0  0  0  0  0  0  0  0  0  0
    3.7826   -1.1434   -0.8782 C   0  0  0  0  0  0  0  0  0  0  0  0
    4.7910   -1.5577   -1.7583 C   0  0  0  0  0  0  0  0  0  0  0  0
    4.5672   -2.2456   -2.5649 H   0  0  0  0  0  0  0  0  0  0  0  0
    6.0963   -1.0896   -1.5991 C   0  0  0  0  0  0  0  0  0  0  0  0
    6.8591   -1.4208   -2.2935 H   0  0  0  0  0  0  0  0  0  0  0  0
    6.4134   -0.1935   -0.5638 C   0  0  0  0  0  0  0  0  0  0  0  0
    7.8216    0.3203   -0.4374 C   0  0  0  0  0  0  0  0  0  0  0  0
    8.4408    0.0408   -1.3177 H   0  0  0  0  0  0  0  0  0  0  0  0
    7.8158    1.4288   -0.3643 H   0  0  0  0  0  0  0  0  0  0  0  0
    8.2945   -0.1073    0.4721 H   0  0  0  0  0  0  0  0  0  0  0  0
    5.4047    0.2089    0.3434 C   0  0  0  0  0  0  0  0  0  0  0  0
    5.7042    1.1258    1.4152 N   0  0  0  0  0  0  0  0  0  0  0  0
    6.6459    1.0821    1.8642 H   0  0  0  0  0  0  0  0  0  0  0  0
    4.8313    2.1922    1.8202 C   0  0  0  0  0  0  0  0  0  0  0  0
    5.2019    3.0173    2.8349 N   0  0  0  0  0  0  0  0  0  0  0  0
    4.4055    4.0463    3.2242 C   0  0  0  0  0  0  0  0  0  0  0  0
    4.7237    4.6946    4.0312 H   0  0  0  0  0  0  0  0  0  0  0  0
    3.1843    4.2682    2.5851 C   0  0  0  0  0  0  0  0  0  0  0  0
    2.5736    5.1060    2.8925 H   0  0  0  0  0  0  0  0  0  0  0  0
    2.8024    3.4077    1.5421 C   0  0  0  0  0  0  0  0  0  0  0  0
    1.5083    3.5512    0.8228 C   0  0  0  0  0  0  0  0  0  0  0  0
    1.3474    2.9885   -0.4593 C   0  0  0  0  0  0  0  0  0  0  0  0
    2.1678    2.4771   -0.9465 H   0  0  0  0  0  0  0  0  0  0  0  0
    0.1562    3.0809   -1.1098 N   0  0  0  0  0  0  0  0  0  0  0  0
   -0.9153    3.7051   -0.5559 C   0  0  0  0  0  0  0  0  0  0  0  0
   -1.8497    3.7550   -1.0992 H   0  0  0  0  0  0  0  0  0  0  0  0
   -0.8128    4.2699    0.7147 C   0  0  0  0  0  0  0  0  0  0  0  0
   -1.6682    4.7575    1.1638 H   0  0  0  0  0  0  0  0  0  0  0  0
    0.3990    4.1929    1.4067 C   0  0  0  0  0  0  0  0  0  0  0  0
    0.4455    4.6042    2.4056 H   0  0  0  0  0  0  0  0  0  0  0  0
    3.6490    2.4058    1.1817 N   0  0  0  0  0  0  0  0  0  0  0  0
    4.1067   -0.3150    0.1983 C   0  0  0  0  0  0  0  0  0  0  0  0
    3.3340   -0.0708    0.9148 H   0  0  0  0  0  0  0  0  0  0  0  0
    0.3302   -2.1196   -2.0759 C   0  0  0  0  0  0  0  0  0  0  0  0
   -0.2451   -2.5859   -0.8787 C   0  0  0  0  0  0  0  0  0  0  0  0
    0.3194   -2.5873    0.0456 H   0  0  0  0  0  0  0  0  0  0  0  0
   -1.5680   -3.0344   -0.8542 C   0  0  0  0  0  0  0  0  0  0  0  0
   -1.9920   -3.3747    0.0828 H   0  0  0  0  0  0  0  0  0  0  0  0
   -2.3458   -3.0198   -2.0223 C   0  0  0  0  0  0  0  0  0  0  0  0
   -3.7952   -3.4580   -1.9818 C   0  0  0  0  0  0  0  0  0  0  0  0
   -3.9455   -4.1855   -1.1544 H   0  0  0  0  0  0  0  0  0  0  0  0
   -4.0350   -4.0195   -2.9112 H   0  0  0  0  0  0  0  0  0  0  0  0
   -4.7554   -2.3423   -1.8228 N   0  0  0  0  0  0  0  0  0  0  0  0
   -4.6485   -1.6536   -0.5200 C   0  0  0  0  0  0  0  0  0  0  0  0
   -5.0112   -2.3376    0.2772 H   0  0  0  0  0  0  0  0  0  0  0  0
   -3.5962   -1.3864   -0.2886 H   0  0  0  0  0  0  0  0  0  0  0  0
   -5.4876   -0.3565   -0.4889 C   0  0  0  0  0  0  0  0  0  0  0  0
   -4.8069    0.5055   -0.6817 H   0  0  0  0  0  0  0  0  0  0  0  0
   -5.8944   -0.1831    0.5304 H   0  0  0  0  0  0  0  0  0  0  0  0
   -6.5621   -0.3474   -1.5090 N   0  0  0  0  0  0  0  0  0  0  0  0
   -7.0199    0.5949   -1.4637 H   0  0  0  0  0  0  0  0  0  0  0  0
   -7.6258   -1.3587   -1.2634 C   0  0  0  0  0  0  0  0  0  0  0  0
   -7.2196   -2.3922   -1.2674 H   0  0  0  0  0  0  0  0  0  0  0  0
   -8.3754   -1.3076   -2.0841 H   0  0  0  0  0  0  0  0  0  0  0  0
   -8.3950   -1.1234    0.0458 C   0  0  0  0  0  0  0  0  0  0  0  0
   -9.3958   -1.5999   -0.0257 H   0  0  0  0  0  0  0  0  0  0  0  0
   -8.5429   -0.0392    0.2359 H   0  0  0  0  0  0  0  0  0  0  0  0
   -7.7276   -1.6979    1.1134 F   0  0  0  0  0  0  0  0  0  0  0  0
   -5.9914   -0.4777   -2.8787 C   0  0  0  0  0  0  0  0  0  0  0  0
   -5.6957    0.5291   -3.2539 H   0  0  0  0  0  0  0  0  0  0  0  0
   -6.7559   -0.8499   -3.5982 H   0  0  0  0  0  0  0  0  0  0  0  0
   -4.7479   -1.3914   -2.9444 C   0  0  0  0  0  0  0  0  0  0  0  0
   -4.7553   -1.9348   -3.9151 H   0  0  0  0  0  0  0  0  0  0  0  0
   -3.8295   -0.7630   -2.9081 H   0  0  0  0  0  0  0  0  0  0  0  0
   -1.7624   -2.5954   -3.2260 C   0  0  0  0  0  0  0  0  0  0  0  0
   -2.3361   -2.5977   -4.1447 H   0  0  0  0  0  0  0  0  0  0  0  0
   -0.4406   -2.1430   -3.2514 C   0  0  0  0  0  0  0  0  0  0  0  0
   -0.0272   -1.7997   -4.1912 H   0  0  0  0  0  0  0  0  0  0  0  0
  1  2  1  0
  2  3  1  0
  3  4  2  0
  4  5  1  0
  5  6  2  0
  6  7  1  0
  6  8  1  0
  8  9  1  0
  8 10  2  0
 10 11  1  0
 11 12  1  0
 11 13  1  0
 11 14  1  0
 10 15  1  0
 15 16  1  0
 16 17  1  0
 16 18  1  0
 18 19  2  0
 19 20  1  0
 20 21  1  0
 20 22  2  0
 22 23  1  0
 22 24  1  0
 24 25  1  0
 25 26  2  0
 26 27  1  0
 26 28  1  0
 28 29  2  0
 29 30  1  0
 29 31  1  0
 31 32  1  0
 31 33  2  0
 33 34  1  0
 24 35  2  0
 15 36  2  0
 36 37  1  0
  3 38  1  0
 38 39  2  0
 39 40  1  0
 39 41  1  0
 41 42  1  0
 41 43  2  0
 43 44  1  0
 44 45  1  0
 44 46  1  0
 44 47  1  0
 47 48  1  0
 48 49  1  0
 48 50  1  0
 48 51  1  0
 51 52  1  0
 51 53  1  0
 51 54  1  0
 54 55  1  0
 54 56  1  0
 56 57  1  0
 56 58  1  0
 56 59  1  0
 59 60  1  0
 59 61  1  0
 59 62  1  0
 54 63  1  0
 63 64  1  0
 63 65  1  0
 63 66  1  0
 66 67  1  0
 66 68  1  0
 43 69  1  0
 69 70  1  0
 69 71  2  0
 71 72  1  0
 36  5  1  0
 71 38  1  0
 35 18  1  0
 66 47  1  0
 33 25  1  0
M  CHG  1  54   1
M  END
>  <UniqueID>  (12) 
12

>  <SMILES>  (12) 
Cc1ccc(/N=C(\O)c2ccc(CN3CC[NH+](CCF)CC3)cc2)cc1Nc1nccc(-c2cccnc2)n1

>  <Energy>  (12) 
109.51296864407162

>  <Genealogy>  (12) 
Cc1ccc(NC(=O)c2ccc(CN3CC[NH+](CCF)CC3)cc2)cc1Nc1nccc(-c2cccnc2)n1 (protonated)
Cc1ccc(N=C(O)c2ccc(CN3CC[NH+](CCF)CC3)cc2)cc1Nc1nccc(-c2cccnc2)n1 (tautomer)
Cc1ccc(/N=C(\O)c2ccc(CN3CC[NH+](CCF)CC3)cc2)cc1Nc1nccc(-c2cccnc2)n1 (cis-trans isomerization)
Cc1ccc(/N=C(\O)c2ccc(CN3CC[NH+](CCF)CC3)cc2)cc1Nc1nccc(-c2cccnc2)n1 (3D coordinates assigned)
Cc1ccc(/N=C(\O)c2ccc(CN3CC[NH+](CCF)CC3)cc2)cc1Nc1nccc(-c2cccnc2)n1 (nonaromatic ring conformer: 109.51296864407162 kcal/mol)

$$$$
CHEMBL3098614
     RDKit          3D

 79 84  0  0  0  0  0  0  0  0999 V2000
    7.8249   -3.6073   -1.6458 C   0  0  0  0  0  0  0  0  0  0  0  0
    6.3510   -3.4621   -1.3807 C   0  0  0  0  0  0  0  0  0  0  0  0
    5.4441   -4.3306   -2.0136 C   0  0  0  0  0  0  0  0  0  0  0  0
    4.0681   -4.1812   -1.8231 C   0  0  0  0  0  0  0  0  0  0  0  0
    3.5805   -3.1888   -0.9647 C   0  0  0  0  0  0  0  0  0  0  0  0
    2.1738   -2.9902   -0.7865 N   0  0  0  0  0  0  0  0  0  0  0  0
    1.3286   -2.5995   -1.8806 C   0  0  0  0  0  0  0  0  0  0  0  0
    1.6749   -2.8761   -3.0629 O   0  0  0  0  0  0  0  0  0  0  0  0
    0.0638   -1.8567   -1.6504 C   0  0  0  0  0  0  0  0  0  0  0  0
   -0.1475   -1.1234   -0.4701 C   0  0  0  0  0  0  0  0  0  0  0  0
   -1.3414   -0.4255   -0.2710 C   0  0  0  0  0  0  0  0  0  0  0  0
   -2.3368   -0.4237   -1.2587 C   0  0  0  0  0  0  0  0  0  0  0  0
   -3.6192    0.3483   -1.0519 C   0  0  0  0  0  0  0  0  0  0  0  0
   -3.6088    1.6654   -1.7443 N   0  0  0  0  0  0  0  0  0  0  0  0
   -4.9366    2.3295   -1.6763 C   0  0  0  0  0  0  0  0  0  0  0  0
   -5.1328    3.1826   -0.4009 C   0  0  0  0  0  0  0  0  0  0  0  0
   -4.1558    2.8038    0.6291 N   0  0  0  0  0  0  0  0  0  0  0  0
   -4.4498    3.4184    1.9399 C   0  0  0  0  0  0  0  0  0  0  0  0
   -5.0584    2.3776    2.8352 C   0  0  0  0  0  0  0  0  0  0  0  0
   -4.2412    1.3925    3.4165 C   0  0  0  0  0  0  0  0  0  0  0  0
   -4.8033    0.3926    4.2163 C   0  0  0  0  0  0  0  0  0  0  0  0
   -6.1857    0.3583    4.4274 C   0  0  0  0  0  0  0  0  0  0  0  0
   -7.0349   -1.1525    5.6326 I   0  0  0  0  0  0  0  0  0  0  0  0
   -7.0066    1.3249    3.8360 C   0  0  0  0  0  0  0  0  0  0  0  0
   -6.4472    2.3300    3.0391 C   0  0  0  0  0  0  0  0  0  0  0  0
   -2.7807    3.0790    0.1756 C   0  0  0  0  0  0  0  0  0  0  0  0
   -2.5441    2.5807   -1.2676 C   0  0  0  0  0  0  0  0  0  0  0  0
   -2.1194   -1.1269   -2.4498 C   0  0  0  0  0  0  0  0  0  0  0  0
   -0.9322   -1.8410   -2.6418 C   0  0  0  0  0  0  0  0  0  0  0  0
    4.4783   -2.3595   -0.2888 C   0  0  0  0  0  0  0  0  0  0  0  0
    5.8603   -2.4434   -0.5309 C   0  0  0  0  0  0  0  0  0  0  0  0
    6.7532   -1.4725    0.0490 N   0  0  0  0  0  0  0  0  0  0  0  0
    6.4825   -0.0619    0.0294 C   0  0  0  0  0  0  0  0  0  0  0  0
    7.4017    0.8110    0.5164 N   0  0  0  0  0  0  0  0  0  0  0  0
    7.1783    2.1490    0.4792 C   0  0  0  0  0  0  0  0  0  0  0  0
    5.9927    2.6488   -0.0619 C   0  0  0  0  0  0  0  0  0  0  0  0
    5.0377    1.7412   -0.5549 C   0  0  0  0  0  0  0  0  0  0  0  0
    3.7276    2.1681   -1.1301 C   0  0  0  0  0  0  0  0  0  0  0  0
    2.9419    1.2429   -1.8482 C   0  0  0  0  0  0  0  0  0  0  0  0
    1.7074    1.6207   -2.3787 C   0  0  0  0  0  0  0  0  0  0  0  0
    1.2551    2.9250   -2.1929 C   0  0  0  0  0  0  0  0  0  0  0  0
    2.0060    3.8091   -1.4874 N   0  0  0  0  0  0  0  0  0  0  0  0
    3.2103    3.4686   -0.9556 C   0  0  0  0  0  0  0  0  0  0  0  0
    5.3265    0.4134   -0.5055 N   0  0  0  0  0  0  0  0  0  0  0  0
    8.2306   -2.6567   -2.0516 H   0  0  0  0  0  0  0  0  0  0  0  0
    8.0332   -4.4130   -2.3839 H   0  0  0  0  0  0  0  0  0  0  0  0
    8.3530   -3.8589   -0.7025 H   0  0  0  0  0  0  0  0  0  0  0  0
    5.7995   -5.1116   -2.6763 H   0  0  0  0  0  0  0  0  0  0  0  0
    3.3836   -4.8459   -2.3336 H   0  0  0  0  0  0  0  0  0  0  0  0
    1.8283   -2.8967    0.1929 H   0  0  0  0  0  0  0  0  0  0  0  0
    0.6128   -1.0577    0.2936 H   0  0  0  0  0  0  0  0  0  0  0  0
   -1.4804    0.1300    0.6484 H   0  0  0  0  0  0  0  0  0  0  0  0
   -3.8222    0.4518    0.0359 H   0  0  0  0  0  0  0  0  0  0  0  0
   -4.4472   -0.2768   -1.4525 H   0  0  0  0  0  0  0  0  0  0  0  0
   -3.4186    1.4759   -2.7568 H   0  0  0  0  0  0  0  0  0  0  0  0
   -5.7573    1.5817   -1.7507 H   0  0  0  0  0  0  0  0  0  0  0  0
   -5.0607    2.9949   -2.5608 H   0  0  0  0  0  0  0  0  0  0  0  0
   -5.0200    4.2622   -0.6541 H   0  0  0  0  0  0  0  0  0  0  0  0
   -6.1680    3.0307   -0.0201 H   0  0  0  0  0  0  0  0  0  0  0  0
   -3.5277    3.7974    2.4357 H   0  0  0  0  0  0  0  0  0  0  0  0
   -5.1209    4.3022    1.8456 H   0  0  0  0  0  0  0  0  0  0  0  0
   -3.1718    1.3948    3.2444 H   0  0  0  0  0  0  0  0  0  0  0  0
   -4.1647   -0.3577    4.6665 H   0  0  0  0  0  0  0  0  0  0  0  0
   -8.0780    1.2956    3.9901 H   0  0  0  0  0  0  0  0  0  0  0  0
   -7.0970    3.0663    2.5809 H   0  0  0  0  0  0  0  0  0  0  0  0
   -2.5646    4.1680    0.2264 H   0  0  0  0  0  0  0  0  0  0  0  0
   -2.0704    2.5590    0.8532 H   0  0  0  0  0  0  0  0  0  0  0  0
   -2.5078    3.4673   -1.9406 H   0  0  0  0  0  0  0  0  0  0  0  0
   -1.5427    2.1084   -1.3503 H   0  0  0  0  0  0  0  0  0  0  0  0
   -2.8688   -1.1275   -3.2304 H   0  0  0  0  0  0  0  0  0  0  0  0
   -0.7968   -2.3898   -3.5666 H   0  0  0  0  0  0  0  0  0  0  0  0
    4.0909   -1.6183    0.3972 H   0  0  0  0  0  0  0  0  0  0  0  0
    7.6992   -1.7800    0.3660 H   0  0  0  0  0  0  0  0  0  0  0  0
    7.9253    2.8276    0.8671 H   0  0  0  0  0  0  0  0  0  0  0  0
    5.8497    3.7177   -0.1011 H   0  0  0  0  0  0  0  0  0  0  0  0
    3.2802    0.2262   -2.0058 H   0  0  0  0  0  0  0  0  0  0  0  0
    1.1067    0.9076   -2.9288 H   0  0  0  0  0  0  0  0  0  0  0  0
    0.3048    3.2351   -2.6059 H   0  0  0  0  0  0  0  0  0  0  0  0
    3.7399    4.2155   -0.3827 H   0  0  0  0  0  0  0  0  0  0  0  0
  1  2  1  0
  2  3  2  0
  3  4  1  0
  4  5  2  0
  5  6  1  0
  6  7  1  0
  7  8  2  0
  7  9  1  0
  9 10  2  0
 10 11  1  0
 11 12  2  0
 12 13  1  0
 13 14  1  0
 14 15  1  0
 15 16  1  0
 16 17  1  0
 17 18  1  0
 18 19  1  0
 19 20  2  0
 20 21  1  0
 21 22  2  0
 22 23  1  0
 22 24  1  0
 24 25  2  0
 17 26  1  0
 26 27  1  0
 12 28  1  0
 28 29  2  0
  5 30  1  0
 30 31  2  0
 31 32  1  0
 32 33  1  0
 33 34  2  0
 34 35  1  0
 35 36  2  0
 36 37  1  0
 37 38  1  0
 38 39  2  0
 39 40  1  0
 40 41  2  0
 41 42  1  0
 42 43  2  0
 37 44  2  0
 31  2  1  0
 44 33  1  0
 29  9  1  0
 43 38  1  0
 27 14  1  0
 25 19  1  0
  1 45  1  0
  1 46  1  0
  1 47  1  0
  3 48  1  0
  4 49  1  0
  6 50  1  0
 10 51  1  0
 11 52  1  0
 13 53  1  0
 13 54  1  0
 14 55  1  0
 15 56  1  0
 15 57  1  0
 16 58  1  0
 16 59  1  0
 18 60  1  0
 18 61  1  0
 20 62  1  0
 21 63  1  0
 24 64  1  0
 25 65  1  0
 26 66  1  0
 26 67  1  0
 27 68  1  0
 27 69  1  0
 28 70  1  0
 29 71  1  0
 30 72  1  0
 32 73  1  0
 35 74  1  0
 36 75  1  0
 39 76  1  0
 40 77  1  0
 41 78  1  0
 43 79  1  0
M  CHG  1  14   1
M  END
>  <UniqueID>  (13) 
13

>  <SMILES>  (13) 
Cc1ccc(NC(=O)c2ccc(C[NH+]3CCN(Cc4ccc(I)cc4)CC3)cc2)cc1Nc1nccc(-c2cccnc2)n1

>  <Energy>  (13) 
114.14260789435649

>  <Genealogy>  (13) 
Cc1ccc(NC(=O)c2ccc(C[NH+]3CCN(Cc4ccc(I)cc4)CC3)cc2)cc1Nc1nccc(-c2cccnc2)n1 (protonated)
Cc1ccc(NC(=O)c2ccc(C[NH+]3CCN(Cc4ccc(I)cc4)CC3)cc2)cc1Nc1nccc(-c2cccnc2)n1 (3D coordinates assigned)
Cc1ccc(NC(=O)c2ccc(C[NH+]3CCN(Cc4ccc(I)cc4)CC3)cc2)cc1Nc1nccc(-c2cccnc2)n1 (nonaromatic ring conformer: 114.14260789435649 kcal/mol)

$$$$
CHEMBL3098614
     RDKit          3D

 78 83  0  0  0  0  0  0  0  0999 V2000
    1.5686    5.4693    9.3359 H   0  0  0  0  0  0  0  0  0  0  0  0
    1.7488    5.0699    8.3463 C   0  0  0  0  0  0  0  0  0  0  0  0
    0.7534    5.0810    7.4219 N   0  0  0  0  0  0  0  0  0  0  0  0
    0.9358    4.5927    6.1657 C   0  0  0  0  0  0  0  0  0  0  0  0
    0.1085    4.6197    5.4670 H   0  0  0  0  0  0  0  0  0  0  0  0
    2.1745    4.0442    5.7890 C   0  0  0  0  0  0  0  0  0  0  0  0
    2.3688    3.5171    4.4156 C   0  0  0  0  0  0  0  0  0  0  0  0
    1.6604    4.0581    3.3869 N   0  0  0  0  0  0  0  0  0  0  0  0
    1.7954    3.6152    2.1096 C   0  0  0  0  0  0  0  0  0  0  0  0
    1.1059    4.1974    1.1699 N   0  0  0  0  0  0  0  0  0  0  0  0
    1.1300    3.8297   -0.2151 C   0  0  0  0  0  0  0  0  0  0  0  0
    0.3877    2.7235   -0.6485 C   0  0  0  0  0  0  0  0  0  0  0  0
   -0.1995    2.1591    0.0649 H   0  0  0  0  0  0  0  0  0  0  0  0
    0.4272    2.3220   -1.9889 C   0  0  0  0  0  0  0  0  0  0  0  0
   -0.3271    1.1772   -2.4079 N   0  0  0  0  0  0  0  0  0  0  0  0
   -1.2550    1.0194   -1.9540 H   0  0  0  0  0  0  0  0  0  0  0  0
    0.2571    0.1077   -3.1697 C   0  0  0  0  0  0  0  0  0  0  0  0
    1.4813    0.1454   -3.4732 O   0  0  0  0  0  0  0  0  0  0  0  0
   -0.5444   -1.0774   -3.5416 C   0  0  0  0  0  0  0  0  0  0  0  0
   -1.9229   -0.9682   -3.7916 C   0  0  0  0  0  0  0  0  0  0  0  0
   -2.4193   -0.0081   -3.7409 H   0  0  0  0  0  0  0  0  0  0  0  0
   -2.6688   -2.0955   -4.1494 C   0  0  0  0  0  0  0  0  0  0  0  0
   -3.7243   -1.9852   -4.3661 H   0  0  0  0  0  0  0  0  0  0  0  0
   -2.0532   -3.3529   -4.2469 C   0  0  0  0  0  0  0  0  0  0  0  0
   -2.8463   -4.5602   -4.6894 C   0  0  0  0  0  0  0  0  0  0  0  0
   -3.6167   -4.2496   -5.4293 H   0  0  0  0  0  0  0  0  0  0  0  0
   -2.1837   -5.2601   -5.2452 H   0  0  0  0  0  0  0  0  0  0  0  0
   -3.4926   -5.2883   -3.5769 N   0  0  0  0  0  0  0  0  0  0  0  0
   -2.5814   -5.9864   -2.6444 C   0  0  0  0  0  0  0  0  0  0  0  0
   -2.8850   -7.0538   -2.5922 H   0  0  0  0  0  0  0  0  0  0  0  0
   -1.5379   -5.9857   -3.0243 H   0  0  0  0  0  0  0  0  0  0  0  0
   -2.6050   -5.4031   -1.2242 C   0  0  0  0  0  0  0  0  0  0  0  0
   -3.3678   -5.9391   -0.6119 H   0  0  0  0  0  0  0  0  0  0  0  0
   -1.6108   -5.5874   -0.7640 H   0  0  0  0  0  0  0  0  0  0  0  0
   -2.8995   -3.9611   -1.2638 N   0  0  0  0  0  0  0  0  0  0  0  0
   -2.7249   -3.3533    0.0757 C   0  0  0  0  0  0  0  0  0  0  0  0
   -3.3387   -2.4275    0.1716 H   0  0  0  0  0  0  0  0  0  0  0  0
   -3.0775   -4.0381    0.8829 H   0  0  0  0  0  0  0  0  0  0  0  0
   -1.2877   -2.9644    0.3025 C   0  0  0  0  0  0  0  0  0  0  0  0
   -0.4141   -3.8159    0.9999 C   0  0  0  0  0  0  0  0  0  0  0  0
   -0.7649   -4.7637    1.3899 H   0  0  0  0  0  0  0  0  0  0  0  0
    0.9194   -3.4451    1.2034 C   0  0  0  0  0  0  0  0  0  0  0  0
    1.5853   -4.1093    1.7404 H   0  0  0  0  0  0  0  0  0  0  0  0
    1.3882   -2.2187    0.7199 C   0  0  0  0  0  0  0  0  0  0  0  0
    3.3962   -1.6522    1.0295 I   0  0  0  0  0  0  0  0  0  0  0  0
    0.5215   -1.3628    0.0345 C   0  0  0  0  0  0  0  0  0  0  0  0
    0.8785   -0.4075   -0.3261 H   0  0  0  0  0  0  0  0  0  0  0  0
   -0.8095   -1.7351   -0.1788 C   0  0  0  0  0  0  0  0  0  0  0  0
   -1.4716   -1.0627   -0.7087 H   0  0  0  0  0  0  0  0  0  0  0  0
   -4.2849   -3.7501   -1.7321 C   0  0  0  0  0  0  0  0  0  0  0  0
   -5.0145   -3.9674   -0.9154 H   0  0  0  0  0  0  0  0  0  0  0  0
   -4.4099   -2.6794   -2.0018 H   0  0  0  0  0  0  0  0  0  0  0  0
   -4.6521   -4.6181   -2.9573 C   0  0  0  0  0  0  0  0  0  0  0  0
   -5.3648   -5.4068   -2.6299 H   0  0  0  0  0  0  0  0  0  0  0  0
   -5.2027   -4.0049   -3.7055 H   0  0  0  0  0  0  0  0  0  0  0  0
   -0.6761   -3.4615   -3.9943 C   0  0  0  0  0  0  0  0  0  0  0  0
   -0.1719   -4.4142   -4.0873 H   0  0  0  0  0  0  0  0  0  0  0  0
    0.0717   -2.3344   -3.6479 C   0  0  0  0  0  0  0  0  0  0  0  0
    1.1315   -2.4475   -3.4531 H   0  0  0  0  0  0  0  0  0  0  0  0
    1.1915    3.0562   -2.9067 C   0  0  0  0  0  0  0  0  0  0  0  0
    1.2138    2.7726   -3.9507 H   0  0  0  0  0  0  0  0  0  0  0  0
    1.9174    4.1729   -2.4853 C   0  0  0  0  0  0  0  0  0  0  0  0
    2.5037    4.7231   -3.2103 H   0  0  0  0  0  0  0  0  0  0  0  0
    1.8890    4.5733   -1.1398 C   0  0  0  0  0  0  0  0  0  0  0  0
    2.7029    5.7535   -0.6873 C   0  0  0  0  0  0  0  0  0  0  0  0
    2.0625    6.4596   -0.1174 H   0  0  0  0  0  0  0  0  0  0  0  0
    3.1395    6.3023   -1.5488 H   0  0  0  0  0  0  0  0  0  0  0  0
    3.5306    5.4046   -0.0340 H   0  0  0  0  0  0  0  0  0  0  0  0
    2.6627    2.5910    1.8403 N   0  0  0  0  0  0  0  0  0  0  0  0
    2.7957    2.2266    0.8706 H   0  0  0  0  0  0  0  0  0  0  0  0
    3.3878    2.0171    2.8362 C   0  0  0  0  0  0  0  0  0  0  0  0
    4.0699    1.2070    2.6108 H   0  0  0  0  0  0  0  0  0  0  0  0
    3.2564    2.4648    4.1485 C   0  0  0  0  0  0  0  0  0  0  0  0
    3.8216    1.9817    4.9350 H   0  0  0  0  0  0  0  0  0  0  0  0
    3.2147    4.0371    6.7366 C   0  0  0  0  0  0  0  0  0  0  0  0
    4.1974    3.6608    6.4852 H   0  0  0  0  0  0  0  0  0  0  0  0
    3.0011    4.5493    8.0182 C   0  0  0  0  0  0  0  0  0  0  0  0
    3.8021    4.5496    8.7484 H   0  0  0  0  0  0  0  0  0  0  0  0
  1  2  1  0
  2  3  2  0
  3  4  1  0
  4  5  1  0
  4  6  2  0
  6  7  1  0
  7  8  2  0
  8  9  1  0
  9 10  2  0
 10 11  1  0
 11 12  2  0
 12 13  1  0
 12 14  1  0
 14 15  1  0
 15 16  1  0
 15 17  1  0
 17 18  2  0
 17 19  1  0
 19 20  2  0
 20 21  1  0
 20 22  1  0
 22 23  1  0
 22 24  2  0
 24 25  1  0
 25 26  1  0
 25 27  1  0
 25 28  1  0
 28 29  1  0
 29 30  1  0
 29 31  1  0
 29 32  1  0
 32 33  1  0
 32 34  1  0
 32 35  1  0
 35 36  1  0
 36 37  1  0
 36 38  1  0
 36 39  1  0
 39 40  2  0
 40 41  1  0
 40 42  1  0
 42 43  1  0
 42 44  2  0
 44 45  1  0
 44 46  1  0
 46 47  1  0
 46 48  2  0
 48 49  1  0
 35 50  1  0
 50 51  1  0
 50 52  1  0
 50 53  1  0
 53 54  1  0
 53 55  1  0
 24 56  1  0
 56 57  1  0
 56 58  2  0
 58 59  1  0
 14 60  2  0
 60 61  1  0
 60 62  1  0
 62 63  1  0
 62 64  2  0
 64 65  1  0
 65 66  1  0
 65 67  1  0
 65 68  1  0
  9 69  1  0
 69 70  1  0
 69 71  1  0
 71 72  1  0
 71 73  2  0
 73 74  1  0
  6 75  1  0
 75 76  1  0
 75 77  2  0
 77 78  1  0
 77  2  1  0
 73  7  1  0
 64 11  1  0
 58 19  1  0
 53 28  1  0
 48 39  1  0
M  END
>  <UniqueID>  (14) 
14

>  <SMILES>  (14) 
Cc1ccc(NC(=O)c2ccc(CN3CCN(Cc4ccc(I)cc4)CC3)cc2)cc1/N=c1/nc(-c2cccnc2)cc[nH]1

>  <Energy>  (14) 
115.39115045496735

>  <Genealogy>  (14) 
Cc1ccc(NC(=O)c2ccc(CN3CCN(Cc4ccc(I)cc4)CC3)cc2)cc1N=c1nc(-c2cccnc2)cc[nH]1 (tautomer)
Cc1ccc(NC(=O)c2ccc(CN3CCN(Cc4ccc(I)cc4)CC3)cc2)cc1/N=c1/nc(-c2cccnc2)cc[nH]1 (cis-trans isomerization)
Cc1ccc(NC(=O)c2ccc(CN3CCN(Cc4ccc(I)cc4)CC3)cc2)cc1/N=c1/nc(-c2cccnc2)cc[nH]1 (3D coordinates assigned)
Cc1ccc(NC(=O)c2ccc(CN3CCN(Cc4ccc(I)cc4)CC3)cc2)cc1/N=c1/nc(-c2cccnc2)cc[nH]1 (nonaromatic ring conformer: 115.39115045496735 kcal/mol)

$$$$
CHEMBL3098614
     RDKit          3D

 79 84  0  0  0  0  0  0  0  0999 V2000
    7.0266   -4.8706   -1.2834 C   0  0  0  0  0  0  0  0  0  0  0  0
    5.8725   -4.0186   -1.7382 C   0  0  0  0  0  0  0  0  0  0  0  0
    4.7492   -4.6351   -2.3114 C   0  0  0  0  0  0  0  0  0  0  0  0
    3.6569   -3.8744   -2.7337 C   0  0  0  0  0  0  0  0  0  0  0  0
    3.6714   -2.4777   -2.5986 C   0  0  0  0  0  0  0  0  0  0  0  0
    2.5607   -1.6592   -3.0083 N   0  0  0  0  0  0  0  0  0  0  0  0
    1.1781   -1.9988   -2.7956 C   0  0  0  0  0  0  0  0  0  0  0  0
    0.8450   -3.1708   -2.4756 O   0  0  0  0  0  0  0  0  0  0  0  0
    0.1308   -0.9671   -2.9272 C   0  0  0  0  0  0  0  0  0  0  0  0
    0.3433    0.3333   -2.4408 C   0  0  0  0  0  0  0  0  0  0  0  0
   -0.6635    1.2975   -2.5396 C   0  0  0  0  0  0  0  0  0  0  0  0
   -1.8899    0.9819   -3.1435 C   0  0  0  0  0  0  0  0  0  0  0  0
   -2.9779    2.0265   -3.2466 C   0  0  0  0  0  0  0  0  0  0  0  0
   -3.7451    2.1675   -1.9836 N   0  0  0  0  0  0  0  0  0  0  0  0
   -4.6133    0.9933   -1.7543 C   0  0  0  0  0  0  0  0  0  0  0  0
   -5.3276    1.0921   -0.3911 C   0  0  0  0  0  0  0  0  0  0  0  0
   -5.7795    2.4658   -0.0538 N   0  0  0  0  0  0  0  0  0  0  0  0
   -4.9956    3.0812    1.0377 C   0  0  0  0  0  0  0  0  0  0  0  0
   -5.3869    2.4742    2.3602 C   0  0  0  0  0  0  0  0  0  0  0  0
   -4.4503    1.7650    3.1286 C   0  0  0  0  0  0  0  0  0  0  0  0
   -4.8249    1.1976    4.3503 C   0  0  0  0  0  0  0  0  0  0  0  0
   -6.1373    1.3304    4.8127 C   0  0  0  0  0  0  0  0  0  0  0  0
   -6.7004    0.4676    6.6525 I   0  0  0  0  0  0  0  0  0  0  0  0
   -7.0770    2.0332    4.0519 C   0  0  0  0  0  0  0  0  0  0  0  0
   -6.7036    2.6052    2.8317 C   0  0  0  0  0  0  0  0  0  0  0  0
   -5.8716    3.3404   -1.2362 C   0  0  0  0  0  0  0  0  0  0  0  0
   -4.5358    3.4299   -2.0062 C   0  0  0  0  0  0  0  0  0  0  0  0
   -2.1022   -0.3181   -3.6285 C   0  0  0  0  0  0  0  0  0  0  0  0
   -1.1039   -1.2883   -3.5101 C   0  0  0  0  0  0  0  0  0  0  0  0
    4.8199   -1.8554   -2.0951 C   0  0  0  0  0  0  0  0  0  0  0  0
    5.9141   -2.6087   -1.6317 C   0  0  0  0  0  0  0  0  0  0  0  0
    7.0750   -1.9475   -1.0889 N   0  0  0  0  0  0  0  0  0  0  0  0
    7.0090   -0.8232   -0.1982 C   0  0  0  0  0  0  0  0  0  0  0  0
    8.1563   -0.2601    0.2634 N   0  0  0  0  0  0  0  0  0  0  0  0
    8.1205    0.7925    1.1206 C   0  0  0  0  0  0  0  0  0  0  0  0
    6.8970    1.3167    1.5384 C   0  0  0  0  0  0  0  0  0  0  0  0
    5.7114    0.7380    1.0503 C   0  0  0  0  0  0  0  0  0  0  0  0
    4.3542    1.2464    1.4106 C   0  0  0  0  0  0  0  0  0  0  0  0
    4.1523    2.5103    1.9994 C   0  0  0  0  0  0  0  0  0  0  0  0
    2.8625    2.9502    2.2989 C   0  0  0  0  0  0  0  0  0  0  0  0
    1.7717    2.1337    2.0022 C   0  0  0  0  0  0  0  0  0  0  0  0
    1.9692    0.9223    1.4242 N   0  0  0  0  0  0  0  0  0  0  0  0
    3.2147    0.4671    1.1227 C   0  0  0  0  0  0  0  0  0  0  0  0
    5.8108   -0.3282    0.2097 N   0  0  0  0  0  0  0  0  0  0  0  0
    7.4223   -4.5031   -0.3136 H   0  0  0  0  0  0  0  0  0  0  0  0
    6.7149   -5.9258   -1.1327 H   0  0  0  0  0  0  0  0  0  0  0  0
    7.8327   -4.8412   -2.0449 H   0  0  0  0  0  0  0  0  0  0  0  0
    4.7166   -5.7103   -2.4313 H   0  0  0  0  0  0  0  0  0  0  0  0
    2.8210   -4.3831   -3.1941 H   0  0  0  0  0  0  0  0  0  0  0  0
    2.7754   -0.6889   -3.3342 H   0  0  0  0  0  0  0  0  0  0  0  0
    1.2763    0.5961   -1.9585 H   0  0  0  0  0  0  0  0  0  0  0  0
   -0.4876    2.2905   -2.1447 H   0  0  0  0  0  0  0  0  0  0  0  0
   -2.4921    2.9947   -3.5065 H   0  0  0  0  0  0  0  0  0  0  0  0
   -3.6599    1.7860   -4.0940 H   0  0  0  0  0  0  0  0  0  0  0  0
   -3.0575    2.2279   -1.1941 H   0  0  0  0  0  0  0  0  0  0  0  0
   -4.0189    0.0551   -1.7528 H   0  0  0  0  0  0  0  0  0  0  0  0
   -5.3701    0.9107   -2.5671 H   0  0  0  0  0  0  0  0  0  0  0  0
   -4.6525    0.6795    0.3920 H   0  0  0  0  0  0  0  0  0  0  0  0
   -6.2168    0.4270   -0.4132 H   0  0  0  0  0  0  0  0  0  0  0  0
   -3.9046    2.9703    0.8530 H   0  0  0  0  0  0  0  0  0  0  0  0
   -5.2005    4.1733    1.1030 H   0  0  0  0  0  0  0  0  0  0  0  0
   -3.4318    1.6471    2.7823 H   0  0  0  0  0  0  0  0  0  0  0  0
   -4.0947    0.6556    4.9370 H   0  0  0  0  0  0  0  0  0  0  0  0
   -8.0952    2.1368    4.4057 H   0  0  0  0  0  0  0  0  0  0  0  0
   -7.4413    3.1454    2.2506 H   0  0  0  0  0  0  0  0  0  0  0  0
   -6.6556    2.9373   -1.9137 H   0  0  0  0  0  0  0  0  0  0  0  0
   -6.2158    4.3587   -0.9490 H   0  0  0  0  0  0  0  0  0  0  0  0
   -3.9284    4.2510   -1.5636 H   0  0  0  0  0  0  0  0  0  0  0  0
   -4.7782    3.7423   -3.0477 H   0  0  0  0  0  0  0  0  0  0  0  0
   -3.0465   -0.5836   -4.0863 H   0  0  0  0  0  0  0  0  0  0  0  0
   -1.2895   -2.2871   -3.8858 H   0  0  0  0  0  0  0  0  0  0  0  0
    4.8541   -0.7753   -2.0683 H   0  0  0  0  0  0  0  0  0  0  0  0
    8.0180   -2.3518   -1.2810 H   0  0  0  0  0  0  0  0  0  0  0  0
    9.0437    1.2214    1.4830 H   0  0  0  0  0  0  0  0  0  0  0  0
    6.8958    2.1412    2.2378 H   0  0  0  0  0  0  0  0  0  0  0  0
    4.9759    3.1752    2.2139 H   0  0  0  0  0  0  0  0  0  0  0  0
    2.7084    3.9213    2.7505 H   0  0  0  0  0  0  0  0  0  0  0  0
    0.7673    2.4649    2.2297 H   0  0  0  0  0  0  0  0  0  0  0  0
    3.3118   -0.5092    0.6648 H   0  0  0  0  0  0  0  0  0  0  0  0
  1  2  1  0
  2  3  2  0
  3  4  1  0
  4  5  2  0
  5  6  1  0
  6  7  1  0
  7  8  2  0
  7  9  1  0
  9 10  2  0
 10 11  1  0
 11 12  2  0
 12 13  1  0
 13 14  1  0
 14 15  1  0
 15 16  1  0
 16 17  1  0
 17 18  1  0
 18 19  1  0
 19 20  2  0
 20 21  1  0
 21 22  2  0
 22 23  1  0
 22 24  1  0
 24 25  2  0
 17 26  1  0
 26 27  1  0
 12 28  1  0
 28 29  2  0
  5 30  1  0
 30 31  2  0
 31 32  1  0
 32 33  1  0
 33 34  2  0
 34 35  1  0
 35 36  2  0
 36 37  1  0
 37 38  1  0
 38 39  2  0
 39 40  1  0
 40 41  2  0
 41 42  1  0
 42 43  2  0
 37 44  2  0
 31  2  1  0
 44 33  1  0
 29  9  1  0
 43 38  1  0
 27 14  1  0
 25 19  1  0
  1 45  1  0
  1 46  1  0
  1 47  1  0
  3 48  1  0
  4 49  1  0
  6 50  1  0
 10 51  1  0
 11 52  1  0
 13 53  1  0
 13 54  1  0
 14 55  1  0
 15 56  1  0
 15 57  1  0
 16 58  1  0
 16 59  1  0
 18 60  1  0
 18 61  1  0
 20 62  1  0
 21 63  1  0
 24 64  1  0
 25 65  1  0
 26 66  1  0
 26 67  1  0
 27 68  1  0
 27 69  1  0
 28 70  1  0
 29 71  1  0
 30 72  1  0
 32 73  1  0
 35 74  1  0
 36 75  1  0
 39 76  1  0
 40 77  1  0
 41 78  1  0
 43 79  1  0
M  CHG  1  14   1
M  END
>  <UniqueID>  (15) 
15

>  <SMILES>  (15) 
Cc1ccc(NC(=O)c2ccc(C[NH+]3CCN(Cc4ccc(I)cc4)CC3)cc2)cc1Nc1nccc(-c2cccnc2)n1

>  <Energy>  (15) 
116.2203649964548

>  <Genealogy>  (15) 
Cc1ccc(NC(=O)c2ccc(C[NH+]3CCN(Cc4ccc(I)cc4)CC3)cc2)cc1Nc1nccc(-c2cccnc2)n1 (protonated)
Cc1ccc(NC(=O)c2ccc(C[NH+]3CCN(Cc4ccc(I)cc4)CC3)cc2)cc1Nc1nccc(-c2cccnc2)n1 (3D coordinates assigned)
Cc1ccc(NC(=O)c2ccc(C[NH+]3CCN(Cc4ccc(I)cc4)CC3)cc2)cc1Nc1nccc(-c2cccnc2)n1 (nonaromatic ring conformer: 116.2203649964548 kcal/mol)

$$$$
CHEMBL4797115
     RDKit          3D

 68 72  0  0  0  0  0  0  0  0999 V2000
    0.8580    0.4886   -8.3126 C   0  0  0  0  0  0  0  0  0  0  0  0
    1.2734    0.2767   -6.8815 C   0  0  0  0  0  0  0  0  0  0  0  0
    2.5581   -0.2186   -6.6034 C   0  0  0  0  0  0  0  0  0  0  0  0
    2.9678   -0.4344   -5.2868 C   0  0  0  0  0  0  0  0  0  0  0  0
    2.1012   -0.1620   -4.2237 C   0  0  0  0  0  0  0  0  0  0  0  0
    2.5335   -0.3958   -2.8745 N   0  0  0  0  0  0  0  0  0  0  0  0
    1.6591   -0.9088   -1.8558 C   0  0  0  0  0  0  0  0  0  0  0  0
    0.5961   -1.5017   -2.1841 O   0  0  0  0  0  0  0  0  0  0  0  0
    2.0055   -0.7777   -0.4239 C   0  0  0  0  0  0  0  0  0  0  0  0
    1.4806   -1.6810    0.5173 C   0  0  0  0  0  0  0  0  0  0  0  0
    1.7848   -1.5449    1.8747 C   0  0  0  0  0  0  0  0  0  0  0  0
    2.6024   -0.4934    2.3168 C   0  0  0  0  0  0  0  0  0  0  0  0
    2.8862   -0.3048    3.7899 C   0  0  0  0  0  0  0  0  0  0  0  0
    2.0479    0.7656    4.3843 N   0  0  0  0  0  0  0  0  0  0  0  0
    0.6488    0.3214    4.5450 C   0  0  0  0  0  0  0  0  0  0  0  0
   -0.2433    1.4873    5.0149 C   0  0  0  0  0  0  0  0  0  0  0  0
    0.4190    2.3868    5.9908 N   0  0  0  0  0  0  0  0  0  0  0  0
    0.7622    3.7008    5.4197 C   0  0  0  0  0  0  0  0  0  0  0  0
    1.5688    1.7625    6.6716 C   0  0  0  0  0  0  0  0  0  0  0  0
    2.6210    1.2003    5.6855 C   0  0  0  0  0  0  0  0  0  0  0  0
    3.1216    0.4128    1.3798 C   0  0  0  0  0  0  0  0  0  0  0  0
    2.8307    0.2700    0.0205 C   0  0  0  0  0  0  0  0  0  0  0  0
    0.8335    0.3767   -4.4909 C   0  0  0  0  0  0  0  0  0  0  0  0
    0.3991    0.5849   -5.8135 C   0  0  0  0  0  0  0  0  0  0  0  0
   -0.8944    1.1666   -6.0723 N   0  0  0  0  0  0  0  0  0  0  0  0
   -2.0676    0.9005   -5.2884 C   0  0  0  0  0  0  0  0  0  0  0  0
   -3.1730    1.6747   -5.4499 N   0  0  0  0  0  0  0  0  0  0  0  0
   -4.3004    1.4421   -4.7312 C   0  0  0  0  0  0  0  0  0  0  0  0
   -4.3380    0.3961   -3.8101 C   0  0  0  0  0  0  0  0  0  0  0  0
   -3.1950   -0.4021   -3.6491 C   0  0  0  0  0  0  0  0  0  0  0  0
   -3.1506   -1.5211   -2.6761 C   0  0  0  0  0  0  0  0  0  0  0  0
   -3.9079   -1.5089   -1.4926 C   0  0  0  0  0  0  0  0  0  0  0  0
   -3.8101   -2.5366   -0.6104 N   0  0  0  0  0  0  0  0  0  0  0  0
   -2.9873   -3.5894   -0.8507 C   0  0  0  0  0  0  0  0  0  0  0  0
   -2.2402   -3.6242   -1.9827 N   0  0  0  0  0  0  0  0  0  0  0  0
   -2.3028   -2.6187   -2.8923 C   0  0  0  0  0  0  0  0  0  0  0  0
   -2.0963   -0.1355   -4.4063 N   0  0  0  0  0  0  0  0  0  0  0  0
    0.8316    1.5760   -8.5366 H   0  0  0  0  0  0  0  0  0  0  0  0
   -0.1480    0.0519   -8.4842 H   0  0  0  0  0  0  0  0  0  0  0  0
    1.5621   -0.0010   -9.0193 H   0  0  0  0  0  0  0  0  0  0  0  0
    3.2455   -0.4444   -7.4091 H   0  0  0  0  0  0  0  0  0  0  0  0
    3.9585   -0.8261   -5.0951 H   0  0  0  0  0  0  0  0  0  0  0  0
    3.5539   -0.3231   -2.6610 H   0  0  0  0  0  0  0  0  0  0  0  0
    0.8387   -2.4964    0.2030 H   0  0  0  0  0  0  0  0  0  0  0  0
    1.3676   -2.2490    2.5837 H   0  0  0  0  0  0  0  0  0  0  0  0
    3.9655   -0.0471    3.8925 H   0  0  0  0  0  0  0  0  0  0  0  0
    2.7422   -1.2637    4.3385 H   0  0  0  0  0  0  0  0  0  0  0  0
    2.0595    1.5851    3.7318 H   0  0  0  0  0  0  0  0  0  0  0  0
    0.2372   -0.0535    3.5832 H   0  0  0  0  0  0  0  0  0  0  0  0
    0.5910   -0.5132    5.2818 H   0  0  0  0  0  0  0  0  0  0  0  0
   -0.5981    2.0488    4.1200 H   0  0  0  0  0  0  0  0  0  0  0  0
   -1.1503    1.0606    5.4936 H   0  0  0  0  0  0  0  0  0  0  0  0
    1.5497    3.6179    4.6452 H   0  0  0  0  0  0  0  0  0  0  0  0
   -0.1384    4.1735    4.9736 H   0  0  0  0  0  0  0  0  0  0  0  0
    1.1185    4.3795    6.2224 H   0  0  0  0  0  0  0  0  0  0  0  0
    1.1906    0.9308    7.3062 H   0  0  0  0  0  0  0  0  0  0  0  0
    2.0505    2.4847    7.3679 H   0  0  0  0  0  0  0  0  0  0  0  0
    3.1397    0.3571    6.1987 H   0  0  0  0  0  0  0  0  0  0  0  0
    3.3914    1.9832    5.5030 H   0  0  0  0  0  0  0  0  0  0  0  0
    3.7435    1.2381    1.7047 H   0  0  0  0  0  0  0  0  0  0  0  0
    3.2285    0.9968   -0.6770 H   0  0  0  0  0  0  0  0  0  0  0  0
    0.2029    0.6726   -3.6638 H   0  0  0  0  0  0  0  0  0  0  0  0
   -0.9960    1.8275   -6.8744 H   0  0  0  0  0  0  0  0  0  0  0  0
   -5.1695    2.0712   -4.8745 H   0  0  0  0  0  0  0  0  0  0  0  0
   -5.2475    0.2109   -3.2555 H   0  0  0  0  0  0  0  0  0  0  0  0
   -4.5534   -0.6755   -1.2492 H   0  0  0  0  0  0  0  0  0  0  0  0
   -2.9218   -4.3996   -0.1377 H   0  0  0  0  0  0  0  0  0  0  0  0
   -1.6912   -2.6810   -3.7833 H   0  0  0  0  0  0  0  0  0  0  0  0
  1  2  1  0
  2  3  2  0
  3  4  1  0
  4  5  2  0
  5  6  1  0
  6  7  1  0
  7  8  2  0
  7  9  1  0
  9 10  2  0
 10 11  1  0
 11 12  2  0
 12 13  1  0
 13 14  1  0
 14 15  1  0
 15 16  1  0
 16 17  1  0
 17 18  1  0
 17 19  1  0
 19 20  1  0
 12 21  1  0
 21 22  2  0
  5 23  1  0
 23 24  2  0
 24 25  1  0
 25 26  1  0
 26 27  2  0
 27 28  1  0
 28 29  2  0
 29 30  1  0
 30 31  1  0
 31 32  2  0
 32 33  1  0
 33 34  2  0
 34 35  1  0
 35 36  2  0
 30 37  2  0
 24  2  1  0
 37 26  1  0
 22  9  1  0
 36 31  1  0
 20 14  1  0
  1 38  1  0
  1 39  1  0
  1 40  1  0
  3 41  1  0
  4 42  1  0
  6 43  1  0
 10 44  1  0
 11 45  1  0
 13 46  1  0
 13 47  1  0
 14 48  1  0
 15 49  1  0
 15 50  1  0
 16 51  1  0
 16 52  1  0
 18 53  1  0
 18 54  1  0
 18 55  1  0
 19 56  1  0
 19 57  1  0
 20 58  1  0
 20 59  1  0
 21 60  1  0
 22 61  1  0
 23 62  1  0
 25 63  1  0
 28 64  1  0
 29 65  1  0
 32 66  1  0
 34 67  1  0
 36 68  1  0
M  CHG  1  14   1
M  END
>  <UniqueID>  (16) 
16

>  <SMILES>  (16) 
Cc1ccc(NC(=O)c2ccc(C[NH+]3CCN(C)CC3)cc2)cc1Nc1nccc(-c2cncnc2)n1

>  <Energy>  (16) 
100.61412766848602

>  <Genealogy>  (16) 
Cc1ccc(NC(=O)c2ccc(C[NH+]3CCN(C)CC3)cc2)cc1Nc1nccc(-c2cncnc2)n1 (protonated)
Cc1ccc(NC(=O)c2ccc(C[NH+]3CCN(C)CC3)cc2)cc1Nc1nccc(-c2cncnc2)n1 (3D coordinates assigned)
Cc1ccc(NC(=O)c2ccc(C[NH+]3CCN(C)CC3)cc2)cc1Nc1nccc(-c2cncnc2)n1 (nonaromatic ring conformer: 100.61412766848602 kcal/mol)

$$$$
CHEMBL4797115
     RDKit          3D

 68 72  0  0  0  0  0  0  0  0999 V2000
    1.6689    0.4529   -7.7773 C   0  0  0  0  0  0  0  0  0  0  0  0
    1.4532    0.5042   -6.2889 C   0  0  0  0  0  0  0  0  0  0  0  0
    2.5492    0.3324   -5.4268 C   0  0  0  0  0  0  0  0  0  0  0  0
    2.3759    0.3618   -4.0416 C   0  0  0  0  0  0  0  0  0  0  0  0
    1.1037    0.5775   -3.4916 C   0  0  0  0  0  0  0  0  0  0  0  0
    0.9004    0.6154   -2.0696 N   0  0  0  0  0  0  0  0  0  0  0  0
    1.5548   -0.2781   -1.1513 C   0  0  0  0  0  0  0  0  0  0  0  0
    2.1996   -1.2693   -1.5911 O   0  0  0  0  0  0  0  0  0  0  0  0
    1.4240   -0.0890    0.3126 C   0  0  0  0  0  0  0  0  0  0  0  0
    1.1338    1.1752    0.8556 C   0  0  0  0  0  0  0  0  0  0  0  0
    0.9854    1.3361    2.2362 C   0  0  0  0  0  0  0  0  0  0  0  0
    1.1273    0.2392    3.0989 C   0  0  0  0  0  0  0  0  0  0  0  0
    0.9585    0.4195    4.5908 C   0  0  0  0  0  0  0  0  0  0  0  0
    2.1250    1.0949    5.2090 N   0  0  0  0  0  0  0  0  0  0  0  0
    3.3015    0.2040    5.2468 C   0  0  0  0  0  0  0  0  0  0  0  0
    4.5434    0.9660    5.7521 C   0  0  0  0  0  0  0  0  0  0  0  0
    4.2491    1.9240    6.8456 N   0  0  0  0  0  0  0  0  0  0  0  0
    4.3430    3.3293    6.4135 C   0  0  0  0  0  0  0  0  0  0  0  0
    2.9777    1.6425    7.5375 C   0  0  0  0  0  0  0  0  0  0  0  0
    1.7714    1.5729    6.5720 C   0  0  0  0  0  0  0  0  0  0  0  0
    1.4398   -1.0189    2.5625 C   0  0  0  0  0  0  0  0  0  0  0  0
    1.5899   -1.1808    1.1829 C   0  0  0  0  0  0  0  0  0  0  0  0
    0.0185    0.8063   -4.3469 C   0  0  0  0  0  0  0  0  0  0  0  0
    0.1730    0.7488   -5.7435 C   0  0  0  0  0  0  0  0  0  0  0  0
   -0.9602    0.9656   -6.6027 N   0  0  0  0  0  0  0  0  0  0  0  0
   -2.2308    0.3313   -6.3959 C   0  0  0  0  0  0  0  0  0  0  0  0
   -3.2633    0.5981   -7.2370 N   0  0  0  0  0  0  0  0  0  0  0  0
   -4.4629   -0.0184   -7.0851 C   0  0  0  0  0  0  0  0  0  0  0  0
   -4.6514   -0.9419   -6.0570 C   0  0  0  0  0  0  0  0  0  0  0  0
   -3.5832   -1.2097   -5.1829 C   0  0  0  0  0  0  0  0  0  0  0  0
   -3.6908   -2.1716   -4.0476 C   0  0  0  0  0  0  0  0  0  0  0  0
   -2.5314   -2.6209   -3.3899 C   0  0  0  0  0  0  0  0  0  0  0  0
   -2.6223   -3.4862   -2.3484 N   0  0  0  0  0  0  0  0  0  0  0  0
   -3.8270   -3.9328   -1.9146 C   0  0  0  0  0  0  0  0  0  0  0  0
   -4.9656   -3.5109   -2.5207 N   0  0  0  0  0  0  0  0  0  0  0  0
   -4.9255   -2.6451   -3.5659 C   0  0  0  0  0  0  0  0  0  0  0  0
   -2.4002   -0.5701   -5.3920 N   0  0  0  0  0  0  0  0  0  0  0  0
    2.6350   -0.0324   -8.0283 H   0  0  0  0  0  0  0  0  0  0  0  0
    0.8634   -0.1364   -8.2627 H   0  0  0  0  0  0  0  0  0  0  0  0
    1.6708    1.4836   -8.1889 H   0  0  0  0  0  0  0  0  0  0  0  0
    3.5420    0.1692   -5.8280 H   0  0  0  0  0  0  0  0  0  0  0  0
    3.2395    0.2391   -3.4012 H   0  0  0  0  0  0  0  0  0  0  0  0
    0.1064    1.1930   -1.7122 H   0  0  0  0  0  0  0  0  0  0  0  0
    1.0343    2.0451    0.2194 H   0  0  0  0  0  0  0  0  0  0  0  0
    0.7583    2.3172    2.6341 H   0  0  0  0  0  0  0  0  0  0  0  0
    0.0387    1.0277    4.7503 H   0  0  0  0  0  0  0  0  0  0  0  0
    0.7710   -0.5627    5.0830 H   0  0  0  0  0  0  0  0  0  0  0  0
    2.3627    1.9291    4.6216 H   0  0  0  0  0  0  0  0  0  0  0  0
    3.5326   -0.1924    4.2343 H   0  0  0  0  0  0  0  0  0  0  0  0
    3.1026   -0.6690    5.9103 H   0  0  0  0  0  0  0  0  0  0  0  0
    5.0239    1.4751    4.8861 H   0  0  0  0  0  0  0  0  0  0  0  0
    5.2819    0.2252    6.1245 H   0  0  0  0  0  0  0  0  0  0  0  0
    5.3573    3.5356    6.0099 H   0  0  0  0  0  0  0  0  0  0  0  0
    4.1946    4.0087    7.2802 H   0  0  0  0  0  0  0  0  0  0  0  0
    3.5912    3.5707    5.6342 H   0  0  0  0  0  0  0  0  0  0  0  0
    2.7844    2.4015    8.3287 H   0  0  0  0  0  0  0  0  0  0  0  0
    3.0734    0.6669    8.0649 H   0  0  0  0  0  0  0  0  0  0  0  0
    1.3129    2.5853    6.4980 H   0  0  0  0  0  0  0  0  0  0  0  0
    1.0084    0.9125    7.0470 H   0  0  0  0  0  0  0  0  0  0  0  0
    1.5639   -1.8770    3.2112 H   0  0  0  0  0  0  0  0  0  0  0  0
    1.8179   -2.1659    0.7957 H   0  0  0  0  0  0  0  0  0  0  0  0
   -0.9512    1.0292   -3.9192 H   0  0  0  0  0  0  0  0  0  0  0  0
   -0.8282    1.5165   -7.4814 H   0  0  0  0  0  0  0  0  0  0  0  0
   -5.2717    0.2024   -7.7689 H   0  0  0  0  0  0  0  0  0  0  0  0
   -5.6070   -1.4378   -5.9753 H   0  0  0  0  0  0  0  0  0  0  0  0
   -1.5500   -2.2905   -3.7049 H   0  0  0  0  0  0  0  0  0  0  0  0
   -3.8797   -4.6231   -1.0841 H   0  0  0  0  0  0  0  0  0  0  0  0
   -5.8621   -2.3226   -3.9949 H   0  0  0  0  0  0  0  0  0  0  0  0
  1  2  1  0
  2  3  2  0
  3  4  1  0
  4  5  2  0
  5  6  1  0
  6  7  1  0
  7  8  2  0
  7  9  1  0
  9 10  2  0
 10 11  1  0
 11 12  2  0
 12 13  1  0
 13 14  1  0
 14 15  1  0
 15 16  1  0
 16 17  1  0
 17 18  1  0
 17 19  1  0
 19 20  1  0
 12 21  1  0
 21 22  2  0
  5 23  1  0
 23 24  2  0
 24 25  1  0
 25 26  1  0
 26 27  2  0
 27 28  1  0
 28 29  2  0
 29 30  1  0
 30 31  1  0
 31 32  2  0
 32 33  1  0
 33 34  2  0
 34 35  1  0
 35 36  2  0
 30 37  2  0
 24  2  1  0
 37 26  1  0
 22  9  1  0
 36 31  1  0
 20 14  1  0
  1 38  1  0
  1 39  1  0
  1 40  1  0
  3 41  1  0
  4 42  1  0
  6 43  1  0
 10 44  1  0
 11 45  1  0
 13 46  1  0
 13 47  1  0
 14 48  1  0
 15 49  1  0
 15 50  1  0
 16 51  1  0
 16 52  1  0
 18 53  1  0
 18 54  1  0
 18 55  1  0
 19 56  1  0
 19 57  1  0
 20 58  1  0
 20 59  1  0
 21 60  1  0
 22 61  1  0
 23 62  1  0
 25 63  1  0
 28 64  1  0
 29 65  1  0
 32 66  1  0
 34 67  1  0
 36 68  1  0
M  CHG  1  14   1
M  END
>  <UniqueID>  (17) 
17

>  <SMILES>  (17) 
Cc1ccc(NC(=O)c2ccc(C[NH+]3CCN(C)CC3)cc2)cc1Nc1nccc(-c2cncnc2)n1

>  <Energy>  (17) 
101.64114879692231

>  <Genealogy>  (17) 
Cc1ccc(NC(=O)c2ccc(C[NH+]3CCN(C)CC3)cc2)cc1Nc1nccc(-c2cncnc2)n1 (protonated)
Cc1ccc(NC(=O)c2ccc(C[NH+]3CCN(C)CC3)cc2)cc1Nc1nccc(-c2cncnc2)n1 (3D coordinates assigned)
Cc1ccc(NC(=O)c2ccc(C[NH+]3CCN(C)CC3)cc2)cc1Nc1nccc(-c2cncnc2)n1 (nonaromatic ring conformer: 101.64114879692231 kcal/mol)

$$$$
CHEMBL4797115
     RDKit          3D

 68 72  0  0  0  0  0  0  0  0999 V2000
    1.4045    0.5397   -6.9904 C   0  0  0  0  0  0  0  0  0  0  0  0
    1.2894    0.4589   -5.4913 C   0  0  0  0  0  0  0  0  0  0  0  0
    2.2926    1.0286   -4.6903 C   0  0  0  0  0  0  0  0  0  0  0  0
    2.2165    0.9589   -3.2989 C   0  0  0  0  0  0  0  0  0  0  0  0
    1.1378    0.3137   -2.6821 C   0  0  0  0  0  0  0  0  0  0  0  0
    1.0386    0.2446   -1.2509 N   0  0  0  0  0  0  0  0  0  0  0  0
    2.1655   -0.0266   -0.4023 C   0  0  0  0  0  0  0  0  0  0  0  0
    3.2105   -0.5392   -0.8901 O   0  0  0  0  0  0  0  0  0  0  0  0
    2.0953    0.2416    1.0504 C   0  0  0  0  0  0  0  0  0  0  0  0
    1.2864    1.2770    1.5476 C   0  0  0  0  0  0  0  0  0  0  0  0
    1.2573    1.5544    2.9177 C   0  0  0  0  0  0  0  0  0  0  0  0
    2.0144    0.7859    3.8163 C   0  0  0  0  0  0  0  0  0  0  0  0
    2.0269    1.1355    5.2884 C   0  0  0  0  0  0  0  0  0  0  0  0
    2.9879    2.2283    5.5840 N   0  0  0  0  0  0  0  0  0  0  0  0
    2.7957    2.7534    6.9646 C   0  0  0  0  0  0  0  0  0  0  0  0
    3.7588    2.1056    7.9755 C   0  0  0  0  0  0  0  0  0  0  0  0
    5.1856    2.3048    7.6119 N   0  0  0  0  0  0  0  0  0  0  0  0
    5.8135    3.3545    8.4280 C   0  0  0  0  0  0  0  0  0  0  0  0
    5.3967    2.5759    6.1723 C   0  0  0  0  0  0  0  0  0  0  0  0
    4.3892    1.7960    5.3198 C   0  0  0  0  0  0  0  0  0  0  0  0
    2.8102   -0.2590    3.3226 C   0  0  0  0  0  0  0  0  0  0  0  0
    2.8612   -0.5208    1.9501 C   0  0  0  0  0  0  0  0  0  0  0  0
    0.1274   -0.2476   -3.4731 C   0  0  0  0  0  0  0  0  0  0  0  0
    0.1911   -0.1869   -4.8783 C   0  0  0  0  0  0  0  0  0  0  0  0
   -0.8126   -0.8392   -5.6800 N   0  0  0  0  0  0  0  0  0  0  0  0
   -2.2078   -0.8731   -5.3512 C   0  0  0  0  0  0  0  0  0  0  0  0
   -2.7300   -0.0126   -4.4360 N   0  0  0  0  0  0  0  0  0  0  0  0
   -4.0551   -0.0206   -4.1484 C   0  0  0  0  0  0  0  0  0  0  0  0
   -4.9050   -0.9174   -4.7943 C   0  0  0  0  0  0  0  0  0  0  0  0
   -4.3608   -1.8082   -5.7340 C   0  0  0  0  0  0  0  0  0  0  0  0
   -5.1997   -2.7942   -6.4677 C   0  0  0  0  0  0  0  0  0  0  0  0
   -4.7635   -3.3270   -7.6913 C   0  0  0  0  0  0  0  0  0  0  0  0
   -5.5276   -4.2297   -8.3584 N   0  0  0  0  0  0  0  0  0  0  0  0
   -6.7190   -4.6426   -7.8582 C   0  0  0  0  0  0  0  0  0  0  0  0
   -7.1616   -4.1575   -6.6713 N   0  0  0  0  0  0  0  0  0  0  0  0
   -6.4324   -3.2517   -5.9689 C   0  0  0  0  0  0  0  0  0  0  0  0
   -3.0252   -1.7488   -5.9937 N   0  0  0  0  0  0  0  0  0  0  0  0
    2.2199    1.2300   -7.3024 H   0  0  0  0  0  0  0  0  0  0  0  0
    0.4537    0.9154   -7.4259 H   0  0  0  0  0  0  0  0  0  0  0  0
    1.6271   -0.4674   -7.4029 H   0  0  0  0  0  0  0  0  0  0  0  0
    3.1368    1.5315   -5.1433 H   0  0  0  0  0  0  0  0  0  0  0  0
    2.9924    1.4215   -2.7027 H   0  0  0  0  0  0  0  0  0  0  0  0
    0.0865    0.2402   -0.8203 H   0  0  0  0  0  0  0  0  0  0  0  0
    0.7028    1.8944    0.8750 H   0  0  0  0  0  0  0  0  0  0  0  0
    0.6504    2.3753    3.2782 H   0  0  0  0  0  0  0  0  0  0  0  0
    2.2570    0.2347    5.9021 H   0  0  0  0  0  0  0  0  0  0  0  0
    0.9941    1.4442    5.5663 H   0  0  0  0  0  0  0  0  0  0  0  0
    2.7727    3.0210    4.9315 H   0  0  0  0  0  0  0  0  0  0  0  0
    1.7484    2.6205    7.3209 H   0  0  0  0  0  0  0  0  0  0  0  0
    2.9811    3.8526    6.9729 H   0  0  0  0  0  0  0  0  0  0  0  0
    3.5555    1.0141    8.0097 H   0  0  0  0  0  0  0  0  0  0  0  0
    3.5310    2.4975    8.9927 H   0  0  0  0  0  0  0  0  0  0  0  0
    5.2890    4.3266    8.2999 H   0  0  0  0  0  0  0  0  0  0  0  0
    5.7894    3.0663    9.5007 H   0  0  0  0  0  0  0  0  0  0  0  0
    6.8816    3.4751    8.1447 H   0  0  0  0  0  0  0  0  0  0  0  0
    5.2952    3.6626    5.9421 H   0  0  0  0  0  0  0  0  0  0  0  0
    6.4256    2.2617    5.8919 H   0  0  0  0  0  0  0  0  0  0  0  0
    4.6361    1.9482    4.2453 H   0  0  0  0  0  0  0  0  0  0  0  0
    4.5291    0.7139    5.5449 H   0  0  0  0  0  0  0  0  0  0  0  0
    3.4052   -0.8598    3.9982 H   0  0  0  0  0  0  0  0  0  0  0  0
    3.4939   -1.3241    1.5909 H   0  0  0  0  0  0  0  0  0  0  0  0
   -0.6857   -0.7721   -2.9872 H   0  0  0  0  0  0  0  0  0  0  0  0
   -0.5214   -1.3045   -6.5697 H   0  0  0  0  0  0  0  0  0  0  0  0
   -4.4508    0.6746   -3.4197 H   0  0  0  0  0  0  0  0  0  0  0  0
   -5.9631   -0.8918   -4.5722 H   0  0  0  0  0  0  0  0  0  0  0  0
   -3.8221   -3.0183   -8.1266 H   0  0  0  0  0  0  0  0  0  0  0  0
   -7.3139   -5.3600   -8.4059 H   0  0  0  0  0  0  0  0  0  0  0  0
   -6.8123   -2.9123   -5.0162 H   0  0  0  0  0  0  0  0  0  0  0  0
  1  2  1  0
  2  3  2  0
  3  4  1  0
  4  5  2  0
  5  6  1  0
  6  7  1  0
  7  8  2  0
  7  9  1  0
  9 10  2  0
 10 11  1  0
 11 12  2  0
 12 13  1  0
 13 14  1  0
 14 15  1  0
 15 16  1  0
 16 17  1  0
 17 18  1  0
 17 19  1  0
 19 20  1  0
 12 21  1  0
 21 22  2  0
  5 23  1  0
 23 24  2  0
 24 25  1  0
 25 26  1  0
 26 27  2  0
 27 28  1  0
 28 29  2  0
 29 30  1  0
 30 31  1  0
 31 32  2  0
 32 33  1  0
 33 34  2  0
 34 35  1  0
 35 36  2  0
 30 37  2  0
 24  2  1  0
 37 26  1  0
 22  9  1  0
 36 31  1  0
 20 14  1  0
  1 38  1  0
  1 39  1  0
  1 40  1  0
  3 41  1  0
  4 42  1  0
  6 43  1  0
 10 44  1  0
 11 45  1  0
 13 46  1  0
 13 47  1  0
 14 48  1  0
 15 49  1  0
 15 50  1  0
 16 51  1  0
 16 52  1  0
 18 53  1  0
 18 54  1  0
 18 55  1  0
 19 56  1  0
 19 57  1  0
 20 58  1  0
 20 59  1  0
 21 60  1  0
 22 61  1  0
 23 62  1  0
 25 63  1  0
 28 64  1  0
 29 65  1  0
 32 66  1  0
 34 67  1  0
 36 68  1  0
M  CHG  1  14   1
M  END
>  <UniqueID>  (18) 
18

>  <SMILES>  (18) 
Cc1ccc(NC(=O)c2ccc(C[NH+]3CCN(C)CC3)cc2)cc1Nc1nccc(-c2cncnc2)n1

>  <Energy>  (18) 
102.91181715118168

>  <Genealogy>  (18) 
Cc1ccc(NC(=O)c2ccc(C[NH+]3CCN(C)CC3)cc2)cc1Nc1nccc(-c2cncnc2)n1 (protonated)
Cc1ccc(NC(=O)c2ccc(C[NH+]3CCN(C)CC3)cc2)cc1Nc1nccc(-c2cncnc2)n1 (3D coordinates assigned)
Cc1ccc(NC(=O)c2ccc(C[NH+]3CCN(C)CC3)cc2)cc1Nc1nccc(-c2cncnc2)n1 (nonaromatic ring conformer: 102.91181715118168 kcal/mol)

$$$$
CHEMBL4777959
     RDKit          3D

 67 71  0  0  0  0  0  0  0  0999 V2000
    2.9866    0.3183    4.4325 H   0  0  0  0  0  0  0  0  0  0  0  0
    2.6973    0.5189    3.4820 O   0  0  0  0  0  0  0  0  0  0  0  0
    1.9683   -0.4051    2.7372 C   0  0  0  0  0  0  0  0  0  0  0  0
    1.6711   -1.5552    3.2745 N   0  0  0  0  0  0  0  0  0  0  0  0
    0.8142   -2.5630    2.7178 C   0  0  0  0  0  0  0  0  0  0  0  0
    1.2351   -3.8949    2.7077 C   0  0  0  0  0  0  0  0  0  0  0  0
    2.2220   -4.1560    3.0710 H   0  0  0  0  0  0  0  0  0  0  0  0
    0.3964   -4.8939    2.2108 C   0  0  0  0  0  0  0  0  0  0  0  0
    0.7483   -5.9188    2.2014 H   0  0  0  0  0  0  0  0  0  0  0  0
   -0.8892   -4.5776    1.7374 C   0  0  0  0  0  0  0  0  0  0  0  0
   -1.7749   -5.6761    1.2157 C   0  0  0  0  0  0  0  0  0  0  0  0
   -1.2383   -6.6457    1.1561 H   0  0  0  0  0  0  0  0  0  0  0  0
   -2.6432   -5.8066    1.8951 H   0  0  0  0  0  0  0  0  0  0  0  0
   -2.1368   -5.4247    0.1956 H   0  0  0  0  0  0  0  0  0  0  0  0
   -1.3307   -3.2353    1.7619 C   0  0  0  0  0  0  0  0  0  0  0  0
   -2.6701   -2.8965    1.3553 N   0  0  0  0  0  0  0  0  0  0  0  0
   -3.4398   -3.5828    1.5234 H   0  0  0  0  0  0  0  0  0  0  0  0
   -3.0297   -1.6393    0.7698 C   0  0  0  0  0  0  0  0  0  0  0  0
   -2.1244   -0.9255    0.0499 N   0  0  0  0  0  0  0  0  0  0  0  0
   -2.4681    0.2542   -0.5259 C   0  0  0  0  0  0  0  0  0  0  0  0
   -1.7427    0.7984   -1.1102 H   0  0  0  0  0  0  0  0  0  0  0  0
   -3.7591    0.7552   -0.3779 C   0  0  0  0  0  0  0  0  0  0  0  0
   -4.0169    1.6865   -0.8634 H   0  0  0  0  0  0  0  0  0  0  0  0
   -4.6922    0.0135    0.3661 C   0  0  0  0  0  0  0  0  0  0  0  0
   -6.0941    0.4757    0.5717 C   0  0  0  0  0  0  0  0  0  0  0  0
   -6.4604    1.8314    0.4447 C   0  0  0  0  0  0  0  0  0  0  0  0
   -5.7304    2.5900    0.2071 H   0  0  0  0  0  0  0  0  0  0  0  0
   -7.7465    2.2207    0.6510 N   0  0  0  0  0  0  0  0  0  0  0  0
   -8.7168    1.3346    0.9899 C   0  0  0  0  0  0  0  0  0  0  0  0
   -9.7295    1.6796    1.1452 H   0  0  0  0  0  0  0  0  0  0  0  0
   -8.4054   -0.0152    1.1420 C   0  0  0  0  0  0  0  0  0  0  0  0
   -9.1733   -0.7265    1.4158 H   0  0  0  0  0  0  0  0  0  0  0  0
   -7.0934   -0.4443    0.9372 C   0  0  0  0  0  0  0  0  0  0  0  0
   -6.8676   -1.4967    1.0557 H   0  0  0  0  0  0  0  0  0  0  0  0
   -4.3000   -1.1753    0.9045 N   0  0  0  0  0  0  0  0  0  0  0  0
   -0.4727   -2.2403    2.2636 C   0  0  0  0  0  0  0  0  0  0  0  0
   -0.8189   -1.2177    2.3432 H   0  0  0  0  0  0  0  0  0  0  0  0
    1.6041   -0.0475    1.3473 C   0  0  0  0  0  0  0  0  0  0  0  0
    1.8255   -0.9448    0.2887 C   0  0  0  0  0  0  0  0  0  0  0  0
    2.2377   -1.9269    0.4748 H   0  0  0  0  0  0  0  0  0  0  0  0
    1.5641   -0.5660   -1.0277 C   0  0  0  0  0  0  0  0  0  0  0  0
    1.7442   -1.2749   -1.8254 H   0  0  0  0  0  0  0  0  0  0  0  0
    1.1189    0.7329   -1.3173 C   0  0  0  0  0  0  0  0  0  0  0  0
    0.9478    1.1762   -2.7546 C   0  0  0  0  0  0  0  0  0  0  0  0
    0.2228    0.4822   -3.2402 H   0  0  0  0  0  0  0  0  0  0  0  0
    0.4907    2.1922   -2.7943 H   0  0  0  0  0  0  0  0  0  0  0  0
    2.2344    1.1634   -3.4956 N   0  0  0  0  0  0  0  0  0  0  0  0
    2.6803    0.2250   -3.3610 H   0  0  0  0  0  0  0  0  0  0  0  0
    3.1611    2.2034   -2.9971 C   0  0  0  0  0  0  0  0  0  0  0  0
    3.2587    2.1508   -1.8901 H   0  0  0  0  0  0  0  0  0  0  0  0
    2.7707    3.2173   -3.2497 H   0  0  0  0  0  0  0  0  0  0  0  0
    4.5710    2.0311   -3.6048 C   0  0  0  0  0  0  0  0  0  0  0  0
    5.0433    3.0357   -3.7035 H   0  0  0  0  0  0  0  0  0  0  0  0
    5.2057    1.4311   -2.9131 H   0  0  0  0  0  0  0  0  0  0  0  0
    4.5433    1.3327   -4.9745 C   0  0  0  0  0  0  0  0  0  0  0  0
    5.4391    1.6280   -5.5645 H   0  0  0  0  0  0  0  0  0  0  0  0
    4.5848    0.2294   -4.8311 H   0  0  0  0  0  0  0  0  0  0  0  0
    3.2710    1.6911   -5.7464 C   0  0  0  0  0  0  0  0  0  0  0  0
    3.2689    1.1572   -6.7209 H   0  0  0  0  0  0  0  0  0  0  0  0
    3.2825    2.7837   -5.9654 H   0  0  0  0  0  0  0  0  0  0  0  0
    1.9877    1.3426   -4.9490 C   0  0  0  0  0  0  0  0  0  0  0  0
    1.5550    0.4037   -5.3639 H   0  0  0  0  0  0  0  0  0  0  0  0
    1.2401    2.1512   -5.1252 H   0  0  0  0  0  0  0  0  0  0  0  0
    0.8832    1.6260   -0.2599 C   0  0  0  0  0  0  0  0  0  0  0  0
    0.5331    2.6315   -0.4596 H   0  0  0  0  0  0  0  0  0  0  0  0
    1.1240    1.2373    1.0622 C   0  0  0  0  0  0  0  0  0  0  0  0
    0.9542    1.9469    1.8628 H   0  0  0  0  0  0  0  0  0  0  0  0
  1  2  1  0
  2  3  1  0
  3  4  2  0
  4  5  1  0
  5  6  2  0
  6  7  1  0
  6  8  1  0
  8  9  1  0
  8 10  2  0
 10 11  1  0
 11 12  1  0
 11 13  1  0
 11 14  1  0
 10 15  1  0
 15 16  1  0
 16 17  1  0
 16 18  1  0
 18 19  2  0
 19 20  1  0
 20 21  1  0
 20 22  2  0
 22 23  1  0
 22 24  1  0
 24 25  1  0
 25 26  2  0
 26 27  1  0
 26 28  1  0
 28 29  2  0
 29 30  1  0
 29 31  1  0
 31 32  1  0
 31 33  2  0
 33 34  1  0
 24 35  2  0
 15 36  2  0
 36 37  1  0
  3 38  1  0
 38 39  2  0
 39 40  1  0
 39 41  1  0
 41 42  1  0
 41 43  2  0
 43 44  1  0
 44 45  1  0
 44 46  1  0
 44 47  1  0
 47 48  1  0
 47 49  1  0
 49 50  1  0
 49 51  1  0
 49 52  1  0
 52 53  1  0
 52 54  1  0
 52 55  1  0
 55 56  1  0
 55 57  1  0
 55 58  1  0
 58 59  1  0
 58 60  1  0
 58 61  1  0
 61 62  1  0
 61 63  1  0
 43 64  1  0
 64 65  1  0
 64 66  2  0
 66 67  1  0
 36  5  1  0
 66 38  1  0
 35 18  1  0
 61 47  1  0
 33 25  1  0
M  CHG  1  47   1
M  END
>  <UniqueID>  (19) 
19

>  <SMILES>  (19) 
Cc1ccc(/N=C(/O)c2ccc(C[NH+]3CCCCC3)cc2)cc1Nc1nccc(-c2cccnc2)n1

>  <Energy>  (19) 
97.90278820701644

>  <Genealogy>  (19) 
Cc1ccc(NC(=O)c2ccc(C[NH+]3CCCCC3)cc2)cc1Nc1nccc(-c2cccnc2)n1 (protonated)
Cc1ccc(N=C(O)c2ccc(C[NH+]3CCCCC3)cc2)cc1Nc1nccc(-c2cccnc2)n1 (tautomer)
Cc1ccc(/N=C(/O)c2ccc(C[NH+]3CCCCC3)cc2)cc1Nc1nccc(-c2cccnc2)n1 (cis-trans isomerization)
Cc1ccc(/N=C(/O)c2ccc(C[NH+]3CCCCC3)cc2)cc1Nc1nccc(-c2cccnc2)n1 (3D coordinates assigned)
Cc1ccc(/N=C(/O)c2ccc(C[NH+]3CCCCC3)cc2)cc1Nc1nccc(-c2cccnc2)n1 (nonaromatic ring conformer: 97.90278820701644 kcal/mol)

$$$$
CHEMBL4777959
     RDKit          3D

 67 71  0  0  0  0  0  0  0  0999 V2000
    2.0359    7.0548   -9.3344 H   0  0  0  0  0  0  0  0  0  0  0  0
    1.5963    6.3786   -8.6132 C   0  0  0  0  0  0  0  0  0  0  0  0
    1.1314    5.1677   -9.0183 N   0  0  0  0  0  0  0  0  0  0  0  0
    0.5740    4.2859   -8.1460 C   0  0  0  0  0  0  0  0  0  0  0  0
    0.2056    3.3391   -8.5209 H   0  0  0  0  0  0  0  0  0  0  0  0
    0.4592    4.6125   -6.7830 C   0  0  0  0  0  0  0  0  0  0  0  0
   -0.1522    3.6649   -5.8180 C   0  0  0  0  0  0  0  0  0  0  0  0
    0.1134    2.2907   -5.9052 C   0  0  0  0  0  0  0  0  0  0  0  0
    0.7755    1.8895   -6.6625 H   0  0  0  0  0  0  0  0  0  0  0  0
   -0.4770    1.4342   -4.9808 C   0  0  0  0  0  0  0  0  0  0  0  0
   -0.2891    0.3702   -5.0272 H   0  0  0  0  0  0  0  0  0  0  0  0
   -1.2904    1.9341   -4.0184 N   0  0  0  0  0  0  0  0  0  0  0  0
   -1.5409    3.2695   -3.9278 C   0  0  0  0  0  0  0  0  0  0  0  0
   -2.3465    3.7405   -3.0187 N   0  0  0  0  0  0  0  0  0  0  0  0
   -2.9881    2.9927   -1.9689 C   0  0  0  0  0  0  0  0  0  0  0  0
   -2.2916    1.9999   -1.2543 C   0  0  0  0  0  0  0  0  0  0  0  0
   -1.2455    1.8273   -1.4655 H   0  0  0  0  0  0  0  0  0  0  0  0
   -2.9249    1.2711   -0.2324 C   0  0  0  0  0  0  0  0  0  0  0  0
   -2.2288    0.2503    0.5059 N   0  0  0  0  0  0  0  0  0  0  0  0
   -2.6071   -0.0158    1.4422 H   0  0  0  0  0  0  0  0  0  0  0  0
   -1.1481   -0.5330   -0.0296 C   0  0  0  0  0  0  0  0  0  0  0  0
   -1.0397   -0.6751   -1.2787 O   0  0  0  0  0  0  0  0  0  0  0  0
   -0.1883   -1.2229    0.8683 C   0  0  0  0  0  0  0  0  0  0  0  0
    0.6373   -2.2465    0.3688 C   0  0  0  0  0  0  0  0  0  0  0  0
    0.5771   -2.5483   -0.6692 H   0  0  0  0  0  0  0  0  0  0  0  0
    1.5449   -2.9010    1.2065 C   0  0  0  0  0  0  0  0  0  0  0  0
    2.1660   -3.6894    0.7990 H   0  0  0  0  0  0  0  0  0  0  0  0
    1.6462   -2.5450    2.5596 C   0  0  0  0  0  0  0  0  0  0  0  0
    2.6108   -3.2633    3.4779 C   0  0  0  0  0  0  0  0  0  0  0  0
    3.1639   -2.4850    4.0511 H   0  0  0  0  0  0  0  0  0  0  0  0
    3.3757   -3.8050    2.8805 H   0  0  0  0  0  0  0  0  0  0  0  0
    1.9091   -4.1920    4.4033 N   0  0  0  0  0  0  0  0  0  0  0  0
    1.0745   -3.6842    4.7844 H   0  0  0  0  0  0  0  0  0  0  0  0
    1.4058   -5.4183    3.7115 C   0  0  0  0  0  0  0  0  0  0  0  0
    0.3473   -5.6038    4.0035 H   0  0  0  0  0  0  0  0  0  0  0  0
    1.3883   -5.2846    2.6084 H   0  0  0  0  0  0  0  0  0  0  0  0
    2.2074   -6.6999    4.0212 C   0  0  0  0  0  0  0  0  0  0  0  0
    1.8486   -7.1457    4.9751 H   0  0  0  0  0  0  0  0  0  0  0  0
    2.0378   -7.4492    3.2180 H   0  0  0  0  0  0  0  0  0  0  0  0
    3.7009   -6.4026    4.1349 C   0  0  0  0  0  0  0  0  0  0  0  0
    4.0760   -6.0457    3.1511 H   0  0  0  0  0  0  0  0  0  0  0  0
    4.2458   -7.3419    4.3730 H   0  0  0  0  0  0  0  0  0  0  0  0
    3.9894   -5.3497    5.2183 C   0  0  0  0  0  0  0  0  0  0  0  0
    4.8034   -4.6788    4.8668 H   0  0  0  0  0  0  0  0  0  0  0  0
    4.3541   -5.8553    6.1392 H   0  0  0  0  0  0  0  0  0  0  0  0
    2.7497   -4.5086    5.5820 C   0  0  0  0  0  0  0  0  0  0  0  0
    2.1408   -5.0713    6.3264 H   0  0  0  0  0  0  0  0  0  0  0  0
    3.0731   -3.5759    6.0960 H   0  0  0  0  0  0  0  0  0  0  0  0
    0.8355   -1.5151    3.0588 C   0  0  0  0  0  0  0  0  0  0  0  0
    0.9082   -1.2193    4.0986 H   0  0  0  0  0  0  0  0  0  0  0  0
   -0.0698   -0.8573    2.2215 C   0  0  0  0  0  0  0  0  0  0  0  0
   -0.6611   -0.0522    2.6360 H   0  0  0  0  0  0  0  0  0  0  0  0
   -4.2444    1.5895    0.1136 C   0  0  0  0  0  0  0  0  0  0  0  0
   -4.7434    1.0506    0.9094 H   0  0  0  0  0  0  0  0  0  0  0  0
   -4.9302    2.6017   -0.5599 C   0  0  0  0  0  0  0  0  0  0  0  0
   -5.9497    2.8270   -0.2709 H   0  0  0  0  0  0  0  0  0  0  0  0
   -4.3082    3.3157   -1.5962 C   0  0  0  0  0  0  0  0  0  0  0  0
   -5.0654    4.3925   -2.3239 C   0  0  0  0  0  0  0  0  0  0  0  0
   -6.0479    4.5956   -1.8479 H   0  0  0  0  0  0  0  0  0  0  0  0
   -4.4793    5.3355   -2.3191 H   0  0  0  0  0  0  0  0  0  0  0  0
   -5.2409    4.0786   -3.3744 H   0  0  0  0  0  0  0  0  0  0  0  0
   -0.9784    4.1224   -4.8303 N   0  0  0  0  0  0  0  0  0  0  0  0
   -1.2052    5.1420   -4.7710 H   0  0  0  0  0  0  0  0  0  0  0  0
    0.9362    5.8616   -6.3546 C   0  0  0  0  0  0  0  0  0  0  0  0
    0.8818    6.1471   -5.3113 H   0  0  0  0  0  0  0  0  0  0  0  0
    1.5082    6.7461   -7.2708 C   0  0  0  0  0  0  0  0  0  0  0  0
    1.8785    7.7087   -6.9423 H   0  0  0  0  0  0  0  0  0  0  0  0
  1  2  1  0
  2  3  2  0
  3  4  1  0
  4  5  1  0
  4  6  2  0
  6  7  1  0
  7  8  2  0
  8  9  1  0
  8 10  1  0
 10 11  1  0
 10 12  2  0
 12 13  1  0
 13 14  2  0
 14 15  1  0
 15 16  2  0
 16 17  1  0
 16 18  1  0
 18 19  1  0
 19 20  1  0
 19 21  1  0
 21 22  2  0
 21 23  1  0
 23 24  2  0
 24 25  1  0
 24 26  1  0
 26 27  1  0
 26 28  2  0
 28 29  1  0
 29 30  1  0
 29 31  1  0
 29 32  1  0
 32 33  1  0
 32 34  1  0
 34 35  1  0
 34 36  1  0
 34 37  1  0
 37 38  1  0
 37 39  1  0
 37 40  1  0
 40 41  1  0
 40 42  1  0
 40 43  1  0
 43 44  1  0
 43 45  1  0
 43 46  1  0
 46 47  1  0
 46 48  1  0
 28 49  1  0
 49 50  1  0
 49 51  2  0
 51 52  1  0
 18 53  2  0
 53 54  1  0
 53 55  1  0
 55 56  1  0
 55 57  2  0
 57 58  1  0
 58 59  1  0
 58 60  1  0
 58 61  1  0
 13 62  1  0
 62 63  1  0
  6 64  1  0
 64 65  1  0
 64 66  2  0
 66 67  1  0
 66  2  1  0
 62  7  1  0
 57 15  1  0
 51 23  1  0
 46 32  1  0
M  CHG  1  32   1
M  END
>  <UniqueID>  (20) 
20

>  <SMILES>  (20) 
Cc1ccc(NC(=O)c2ccc(C[NH+]3CCCCC3)cc2)cc1/N=c1\nccc(-c2cccnc2)[nH]1

>  <Energy>  (20) 
99.66826849277095

>  <Genealogy>  (20) 
Cc1ccc(NC(=O)c2ccc(C[NH+]3CCCCC3)cc2)cc1Nc1nccc(-c2cccnc2)n1 (protonated)
Cc1ccc(NC(=O)c2ccc(C[NH+]3CCCCC3)cc2)cc1N=c1nccc(-c2cccnc2)[nH]1 (tautomer)
Cc1ccc(NC(=O)c2ccc(C[NH+]3CCCCC3)cc2)cc1/N=c1\nccc(-c2cccnc2)[nH]1 (cis-trans isomerization)
Cc1ccc(NC(=O)c2ccc(C[NH+]3CCCCC3)cc2)cc1/N=c1\nccc(-c2cccnc2)[nH]1 (3D coordinates assigned)
Cc1ccc(NC(=O)c2ccc(C[NH+]3CCCCC3)cc2)cc1/N=c1\nccc(-c2cccnc2)[nH]1 (nonaromatic ring conformer: 99.66826849277095 kcal/mol)

$$$$
CHEMBL4777959
     RDKit          3D

 67 71  0  0  0  0  0  0  0  0999 V2000
    1.4820    6.4432  -10.8754 H   0  0  0  0  0  0  0  0  0  0  0  0
    1.0732    6.1875   -9.9072 C   0  0  0  0  0  0  0  0  0  0  0  0
    0.1556    7.0030   -9.3248 N   0  0  0  0  0  0  0  0  0  0  0  0
   -0.3802    6.7230   -8.1067 C   0  0  0  0  0  0  0  0  0  0  0  0
   -1.1162    7.3992   -7.6909 H   0  0  0  0  0  0  0  0  0  0  0  0
    0.0055    5.5631   -7.4108 C   0  0  0  0  0  0  0  0  0  0  0  0
   -0.5643    5.2438   -6.0775 C   0  0  0  0  0  0  0  0  0  0  0  0
   -0.7810    6.2599   -5.1354 C   0  0  0  0  0  0  0  0  0  0  0  0
   -0.5393    7.2930   -5.3512 H   0  0  0  0  0  0  0  0  0  0  0  0
   -1.2891    5.9186   -3.8853 C   0  0  0  0  0  0  0  0  0  0  0  0
   -1.4556    6.6831   -3.1381 H   0  0  0  0  0  0  0  0  0  0  0  0
   -1.5672    4.6232   -3.5985 N   0  0  0  0  0  0  0  0  0  0  0  0
   -1.3668    3.6386   -4.5178 C   0  0  0  0  0  0  0  0  0  0  0  0
   -1.6265    2.3968   -4.2284 N   0  0  0  0  0  0  0  0  0  0  0  0
   -2.1649    1.9549   -2.9738 C   0  0  0  0  0  0  0  0  0  0  0  0
   -1.3482    1.1998   -2.1232 C   0  0  0  0  0  0  0  0  0  0  0  0
   -0.3349    0.9661   -2.4266 H   0  0  0  0  0  0  0  0  0  0  0  0
   -1.8191    0.7564   -0.8802 C   0  0  0  0  0  0  0  0  0  0  0  0
   -0.9301    0.0349   -0.0098 N   0  0  0  0  0  0  0  0  0  0  0  0
    0.0816    0.2854   -0.0608 H   0  0  0  0  0  0  0  0  0  0  0  0
   -1.3483   -1.0241    0.8722 C   0  0  0  0  0  0  0  0  0  0  0  0
   -2.5327   -1.4557    0.8207 O   0  0  0  0  0  0  0  0  0  0  0  0
   -0.4079   -1.6255    1.8487 C   0  0  0  0  0  0  0  0  0  0  0  0
   -0.8986   -2.1494    3.0575 C   0  0  0  0  0  0  0  0  0  0  0  0
   -1.9575   -2.1147    3.2829 H   0  0  0  0  0  0  0  0  0  0  0  0
   -0.0259   -2.7004    4.0001 C   0  0  0  0  0  0  0  0  0  0  0  0
   -0.4247   -3.0828    4.9315 H   0  0  0  0  0  0  0  0  0  0  0  0
    1.3528   -2.7479    3.7482 C   0  0  0  0  0  0  0  0  0  0  0  0
    2.2958   -3.3270    4.7787 C   0  0  0  0  0  0  0  0  0  0  0  0
    3.3431   -3.0105    4.5664 H   0  0  0  0  0  0  0  0  0  0  0  0
    2.0289   -2.8779    5.7628 H   0  0  0  0  0  0  0  0  0  0  0  0
    2.2077   -4.8055    4.8548 N   0  0  0  0  0  0  0  0  0  0  0  0
    1.1950   -5.0735    4.9106 H   0  0  0  0  0  0  0  0  0  0  0  0
    2.8776   -5.2798    6.0957 C   0  0  0  0  0  0  0  0  0  0  0  0
    2.2008   -5.1057    6.9624 H   0  0  0  0  0  0  0  0  0  0  0  0
    3.8084   -4.6993    6.2911 H   0  0  0  0  0  0  0  0  0  0  0  0
    3.2555   -6.7776    6.0625 C   0  0  0  0  0  0  0  0  0  0  0  0
    4.3268   -6.8820    5.7813 H   0  0  0  0  0  0  0  0  0  0  0  0
    3.1296   -7.2201    7.0747 H   0  0  0  0  0  0  0  0  0  0  0  0
    2.4071   -7.5514    5.0554 C   0  0  0  0  0  0  0  0  0  0  0  0
    1.3414   -7.5097    5.3705 H   0  0  0  0  0  0  0  0  0  0  0  0
    2.7151   -8.6185    5.0490 H   0  0  0  0  0  0  0  0  0  0  0  0
    2.5535   -6.9629    3.6431 C   0  0  0  0  0  0  0  0  0  0  0  0
    3.3991   -7.4609    3.1193 H   0  0  0  0  0  0  0  0  0  0  0  0
    1.6275   -7.1849    3.0680 H   0  0  0  0  0  0  0  0  0  0  0  0
    2.8019   -5.4398    3.6556 C   0  0  0  0  0  0  0  0  0  0  0  0
    2.3666   -5.0167    2.7244 H   0  0  0  0  0  0  0  0  0  0  0  0
    3.8986   -5.2451    3.6273 H   0  0  0  0  0  0  0  0  0  0  0  0
    1.8440   -2.2519    2.5314 C   0  0  0  0  0  0  0  0  0  0  0  0
    2.9028   -2.2970    2.3092 H   0  0  0  0  0  0  0  0  0  0  0  0
    0.9729   -1.6981    1.5888 C   0  0  0  0  0  0  0  0  0  0  0  0
    1.3858   -1.3533    0.6511 H   0  0  0  0  0  0  0  0  0  0  0  0
   -3.1203    1.1012   -0.4801 C   0  0  0  0  0  0  0  0  0  0  0  0
   -3.4880    0.8318    0.5006 H   0  0  0  0  0  0  0  0  0  0  0  0
   -3.9517    1.8312   -1.3335 C   0  0  0  0  0  0  0  0  0  0  0  0
   -4.9537    2.0792   -1.0059 H   0  0  0  0  0  0  0  0  0  0  0  0
   -3.4960    2.2423   -2.5959 C   0  0  0  0  0  0  0  0  0  0  0  0
   -4.4209    3.0150   -3.4972 C   0  0  0  0  0  0  0  0  0  0  0  0
   -5.4819    2.7741   -3.2737 H   0  0  0  0  0  0  0  0  0  0  0  0
   -4.2381    2.7597   -4.5626 H   0  0  0  0  0  0  0  0  0  0  0  0
   -4.2657    4.1040   -3.3474 H   0  0  0  0  0  0  0  0  0  0  0  0
   -0.8655    3.9529   -5.7456 N   0  0  0  0  0  0  0  0  0  0  0  0
   -0.7282    3.1884   -6.4455 H   0  0  0  0  0  0  0  0  0  0  0  0
    0.9540    4.7145   -8.0047 C   0  0  0  0  0  0  0  0  0  0  0  0
    1.2956    3.8222   -7.4949 H   0  0  0  0  0  0  0  0  0  0  0  0
    1.4913    5.0284   -9.2542 C   0  0  0  0  0  0  0  0  0  0  0  0
    2.2282    4.3808   -9.7106 H   0  0  0  0  0  0  0  0  0  0  0  0
  1  2  1  0
  2  3  2  0
  3  4  1  0
  4  5  1  0
  4  6  2  0
  6  7  1  0
  7  8  2  0
  8  9  1  0
  8 10  1  0
 10 11  1  0
 10 12  2  0
 12 13  1  0
 13 14  2  0
 14 15  1  0
 15 16  2  0
 16 17  1  0
 16 18  1  0
 18 19  1  0
 19 20  1  0
 19 21  1  0
 21 22  2  0
 21 23  1  0
 23 24  2  0
 24 25  1  0
 24 26  1  0
 26 27  1  0
 26 28  2  0
 28 29  1  0
 29 30  1  0
 29 31  1  0
 29 32  1  0
 32 33  1  0
 32 34  1  0
 34 35  1  0
 34 36  1  0
 34 37  1  0
 37 38  1  0
 37 39  1  0
 37 40  1  0
 40 41  1  0
 40 42  1  0
 40 43  1  0
 43 44  1  0
 43 45  1  0
 43 46  1  0
 46 47  1  0
 46 48  1  0
 28 49  1  0
 49 50  1  0
 49 51  2  0
 51 52  1  0
 18 53  2  0
 53 54  1  0
 53 55  1  0
 55 56  1  0
 55 57  2  0
 57 58  1  0
 58 59  1  0
 58 60  1  0
 58 61  1  0
 13 62  1  0
 62 63  1  0
  6 64  1  0
 64 65  1  0
 64 66  2  0
 66 67  1  0
 66  2  1  0
 62  7  1  0
 57 15  1  0
 51 23  1  0
 46 32  1  0
M  CHG  1  32   1
M  END
>  <UniqueID>  (21) 
21

>  <SMILES>  (21) 
Cc1ccc(NC(=O)c2ccc(C[NH+]3CCCCC3)cc2)cc1/N=c1\nccc(-c2cccnc2)[nH]1

>  <Energy>  (21) 
100.43731825533354

>  <Genealogy>  (21) 
Cc1ccc(NC(=O)c2ccc(C[NH+]3CCCCC3)cc2)cc1Nc1nccc(-c2cccnc2)n1 (protonated)
Cc1ccc(NC(=O)c2ccc(C[NH+]3CCCCC3)cc2)cc1N=c1nccc(-c2cccnc2)[nH]1 (tautomer)
Cc1ccc(NC(=O)c2ccc(C[NH+]3CCCCC3)cc2)cc1/N=c1\nccc(-c2cccnc2)[nH]1 (cis-trans isomerization)
Cc1ccc(NC(=O)c2ccc(C[NH+]3CCCCC3)cc2)cc1/N=c1\nccc(-c2cccnc2)[nH]1 (3D coordinates assigned)
Cc1ccc(NC(=O)c2ccc(C[NH+]3CCCCC3)cc2)cc1/N=c1\nccc(-c2cccnc2)[nH]1 (nonaromatic ring conformer: 100.43731825533354 kcal/mol)

$$$$
CHEMBL4748697
     RDKit          3D

 70 74  0  0  0  0  0  0  0  0999 V2000
   -4.2452   -1.3724   -1.6338 H   0  0  0  0  0  0  0  0  0  0  0  0
   -3.2707   -1.5735   -1.8155 O   0  0  0  0  0  0  0  0  0  0  0  0
   -2.2490   -1.2991   -0.9007 C   0  0  0  0  0  0  0  0  0  0  0  0
   -2.5094   -0.9661    0.3315 N   0  0  0  0  0  0  0  0  0  0  0  0
   -3.7847   -0.9880    0.9899 C   0  0  0  0  0  0  0  0  0  0  0  0
   -4.6581   -2.0780    0.8577 C   0  0  0  0  0  0  0  0  0  0  0  0
   -4.4126   -2.9035    0.2023 H   0  0  0  0  0  0  0  0  0  0  0  0
   -5.8428   -2.1232    1.5927 C   0  0  0  0  0  0  0  0  0  0  0  0
   -6.5056   -2.9689    1.4639 H   0  0  0  0  0  0  0  0  0  0  0  0
   -6.1530   -1.1079    2.5125 C   0  0  0  0  0  0  0  0  0  0  0  0
   -7.4321   -1.1935    3.2995 C   0  0  0  0  0  0  0  0  0  0  0  0
   -7.8628   -2.2161    3.2649 H   0  0  0  0  0  0  0  0  0  0  0  0
   -7.2447   -0.9447    4.3650 H   0  0  0  0  0  0  0  0  0  0  0  0
   -8.1733   -0.4809    2.8808 H   0  0  0  0  0  0  0  0  0  0  0  0
   -5.2565   -0.0278    2.6853 C   0  0  0  0  0  0  0  0  0  0  0  0
   -5.5440    1.0187    3.6313 N   0  0  0  0  0  0  0  0  0  0  0  0
   -6.5343    1.3336    3.7482 H   0  0  0  0  0  0  0  0  0  0  0  0
   -4.5725    1.5316    4.5551 C   0  0  0  0  0  0  0  0  0  0  0  0
   -4.9265    2.5115    5.4283 N   0  0  0  0  0  0  0  0  0  0  0  0
   -4.0381    2.9940    6.3349 C   0  0  0  0  0  0  0  0  0  0  0  0
   -4.3363    3.7805    7.0150 H   0  0  0  0  0  0  0  0  0  0  0  0
   -2.7435    2.4802    6.3874 C   0  0  0  0  0  0  0  0  0  0  0  0
   -2.0360    2.8848    7.0994 H   0  0  0  0  0  0  0  0  0  0  0  0
   -2.3870    1.4633    5.4890 C   0  0  0  0  0  0  0  0  0  0  0  0
   -1.0270    0.8737    5.4725 C   0  0  0  0  0  0  0  0  0  0  0  0
   -0.2746    0.7382    6.6550 C   0  0  0  0  0  0  0  0  0  0  0  0
   -0.6746    1.0566    7.6088 H   0  0  0  0  0  0  0  0  0  0  0  0
    0.9952    0.1555    6.6209 C   0  0  0  0  0  0  0  0  0  0  0  0
    1.5645    0.0472    7.5349 H   0  0  0  0  0  0  0  0  0  0  0  0
    1.5293   -0.2933    5.4113 C   0  0  0  0  0  0  0  0  0  0  0  0
    2.5126   -0.7405    5.3885 H   0  0  0  0  0  0  0  0  0  0  0  0
    0.7938   -0.1647    4.2322 C   0  0  0  0  0  0  0  0  0  0  0  0
    1.2112   -0.5102    3.2952 H   0  0  0  0  0  0  0  0  0  0  0  0
   -0.4790    0.4110    4.2607 C   0  0  0  0  0  0  0  0  0  0  0  0
   -1.0299    0.5066    3.3345 H   0  0  0  0  0  0  0  0  0  0  0  0
   -3.3138    1.0171    4.5993 N   0  0  0  0  0  0  0  0  0  0  0  0
   -4.0834    0.0214    1.9114 C   0  0  0  0  0  0  0  0  0  0  0  0
   -3.3974    0.8526    2.0157 H   0  0  0  0  0  0  0  0  0  0  0  0
   -0.8386   -1.3730   -1.3535 C   0  0  0  0  0  0  0  0  0  0  0  0
    0.2231   -1.1620   -0.4545 C   0  0  0  0  0  0  0  0  0  0  0  0
    0.0320   -0.9192    0.5828 H   0  0  0  0  0  0  0  0  0  0  0  0
    1.5486   -1.2874   -0.8783 C   0  0  0  0  0  0  0  0  0  0  0  0
    2.3481   -1.1442   -0.1622 H   0  0  0  0  0  0  0  0  0  0  0  0
    1.8414   -1.6142   -2.2102 C   0  0  0  0  0  0  0  0  0  0  0  0
    3.2767   -1.8041   -2.6489 C   0  0  0  0  0  0  0  0  0  0  0  0
    3.7399   -2.5291   -1.9403 H   0  0  0  0  0  0  0  0  0  0  0  0
    3.3210   -2.2815   -3.6552 H   0  0  0  0  0  0  0  0  0  0  0  0
    4.0412   -0.5323   -2.6526 N   0  0  0  0  0  0  0  0  0  0  0  0
    3.8476   -0.0287   -1.7537 H   0  0  0  0  0  0  0  0  0  0  0  0
    5.4977   -0.8303   -2.6685 C   0  0  0  0  0  0  0  0  0  0  0  0
    5.8489   -1.0530   -1.6364 H   0  0  0  0  0  0  0  0  0  0  0  0
    5.7199   -1.7266   -3.2899 H   0  0  0  0  0  0  0  0  0  0  0  0
    6.3121    0.3441   -3.2284 C   0  0  0  0  0  0  0  0  0  0  0  0
    6.1198    1.2419   -2.6024 H   0  0  0  0  0  0  0  0  0  0  0  0
    7.3974    0.1202   -3.1229 H   0  0  0  0  0  0  0  0  0  0  0  0
    5.9438    0.6574   -4.6309 N   0  0  0  0  0  0  0  0  0  0  0  0
    6.8947    0.0598   -5.5831 C   0  0  0  0  0  0  0  0  0  0  0  0
    7.9179    0.4541   -5.4008 H   0  0  0  0  0  0  0  0  0  0  0  0
    6.6204    0.3377   -6.6236 H   0  0  0  0  0  0  0  0  0  0  0  0
    6.9110   -1.0490   -5.4908 H   0  0  0  0  0  0  0  0  0  0  0  0
    4.5559    0.2679   -4.9795 C   0  0  0  0  0  0  0  0  0  0  0  0
    4.5083   -0.7759   -5.3722 H   0  0  0  0  0  0  0  0  0  0  0  0
    4.1841    0.9487   -5.7756 H   0  0  0  0  0  0  0  0  0  0  0  0
    3.6208    0.3668   -3.7654 C   0  0  0  0  0  0  0  0  0  0  0  0
    3.6256    1.4225   -3.4102 H   0  0  0  0  0  0  0  0  0  0  0  0
    2.5802    0.1634   -4.0984 H   0  0  0  0  0  0  0  0  0  0  0  0
    0.7864   -1.8101   -3.1141 C   0  0  0  0  0  0  0  0  0  0  0  0
    0.9900   -2.0690   -4.1462 H   0  0  0  0  0  0  0  0  0  0  0  0
   -0.5405   -1.6885   -2.6914 C   0  0  0  0  0  0  0  0  0  0  0  0
   -1.3326   -1.8580   -3.4113 H   0  0  0  0  0  0  0  0  0  0  0  0
  1  2  1  0
  2  3  1  0
  3  4  2  0
  4  5  1  0
  5  6  2  0
  6  7  1  0
  6  8  1  0
  8  9  1  0
  8 10  2  0
 10 11  1  0
 11 12  1  0
 11 13  1  0
 11 14  1  0
 10 15  1  0
 15 16  1  0
 16 17  1  0
 16 18  1  0
 18 19  2  0
 19 20  1  0
 20 21  1  0
 20 22  2  0
 22 23  1  0
 22 24  1  0
 24 25  1  0
 25 26  2  0
 26 27  1  0
 26 28  1  0
 28 29  1  0
 28 30  2  0
 30 31  1  0
 30 32  1  0
 32 33  1  0
 32 34  2  0
 34 35  1  0
 24 36  2  0
 15 37  2  0
 37 38  1  0
  3 39  1  0
 39 40  2  0
 40 41  1  0
 40 42  1  0
 42 43  1  0
 42 44  2  0
 44 45  1  0
 45 46  1  0
 45 47  1  0
 45 48  1  0
 48 49  1  0
 48 50  1  0
 50 51  1  0
 50 52  1  0
 50 53  1  0
 53 54  1  0
 53 55  1  0
 53 56  1  0
 56 57  1  0
 57 58  1  0
 57 59  1  0
 57 60  1  0
 56 61  1  0
 61 62  1  0
 61 63  1  0
 61 64  1  0
 64 65  1  0
 64 66  1  0
 44 67  1  0
 67 68  1  0
 67 69  2  0
 69 70  1  0
 37  5  1  0
 69 39  1  0
 36 18  1  0
 64 48  1  0
 34 25  1  0
M  CHG  1  48   1
M  END
>  <UniqueID>  (22) 
22

>  <SMILES>  (22) 
Cc1ccc(/N=C(\O)c2ccc(C[NH+]3CCN(C)CC3)cc2)cc1Nc1nccc(-c2ccccc2)n1

>  <Energy>  (22) 
104.93711133048367

>  <Genealogy>  (22) 
Cc1ccc(NC(=O)c2ccc(C[NH+]3CCN(C)CC3)cc2)cc1Nc1nccc(-c2ccccc2)n1 (protonated)
Cc1ccc(N=C(O)c2ccc(C[NH+]3CCN(C)CC3)cc2)cc1Nc1nccc(-c2ccccc2)n1 (tautomer)
Cc1ccc(/N=C(\O)c2ccc(C[NH+]3CCN(C)CC3)cc2)cc1Nc1nccc(-c2ccccc2)n1 (cis-trans isomerization)
Cc1ccc(/N=C(\O)c2ccc(C[NH+]3CCN(C)CC3)cc2)cc1Nc1nccc(-c2ccccc2)n1 (3D coordinates assigned)
Cc1ccc(/N=C(\O)c2ccc(C[NH+]3CCN(C)CC3)cc2)cc1Nc1nccc(-c2ccccc2)n1 (nonaromatic ring conformer: 104.93711133048367 kcal/mol)

$$$$
CHEMBL4748697
     RDKit          3D

 70 74  0  0  0  0  0  0  0  0999 V2000
   -3.6264   -2.8786   -0.9317 H   0  0  0  0  0  0  0  0  0  0  0  0
   -2.8548   -2.4900   -1.4572 O   0  0  0  0  0  0  0  0  0  0  0  0
   -2.0525   -1.4447   -0.9853 C   0  0  0  0  0  0  0  0  0  0  0  0
   -2.3577   -0.7874    0.0992 N   0  0  0  0  0  0  0  0  0  0  0  0
   -3.5576   -0.9231    0.8735 C   0  0  0  0  0  0  0  0  0  0  0  0
   -4.8233   -0.8852    0.2717 C   0  0  0  0  0  0  0  0  0  0  0  0
   -4.9171   -0.7716   -0.8010 H   0  0  0  0  0  0  0  0  0  0  0  0
   -5.9765   -0.9890    1.0522 C   0  0  0  0  0  0  0  0  0  0  0  0
   -6.9427   -0.9759    0.5633 H   0  0  0  0  0  0  0  0  0  0  0  0
   -5.8855   -1.0977    2.4493 C   0  0  0  0  0  0  0  0  0  0  0  0
   -7.1421   -1.2174    3.2678 C   0  0  0  0  0  0  0  0  0  0  0  0
   -7.2433   -2.2580    3.6410 H   0  0  0  0  0  0  0  0  0  0  0  0
   -7.1070   -0.5180    4.1298 H   0  0  0  0  0  0  0  0  0  0  0  0
   -8.0443   -0.9682    2.6683 H   0  0  0  0  0  0  0  0  0  0  0  0
   -4.6138   -1.0950    3.0640 C   0  0  0  0  0  0  0  0  0  0  0  0
   -4.4890   -1.2293    4.4904 N   0  0  0  0  0  0  0  0  0  0  0  0
   -5.1054   -1.9099    4.9885 H   0  0  0  0  0  0  0  0  0  0  0  0
   -3.5920   -0.4316    5.2738 C   0  0  0  0  0  0  0  0  0  0  0  0
   -3.3478   -0.7640    6.5688 N   0  0  0  0  0  0  0  0  0  0  0  0
   -2.5138   -0.0163    7.3357 C   0  0  0  0  0  0  0  0  0  0  0  0
   -2.3358   -0.2943    8.3659 H   0  0  0  0  0  0  0  0  0  0  0  0
   -1.8944    1.1122    6.7996 C   0  0  0  0  0  0  0  0  0  0  0  0
   -1.2529    1.7133    7.4297 H   0  0  0  0  0  0  0  0  0  0  0  0
   -2.1537    1.4533    5.4619 C   0  0  0  0  0  0  0  0  0  0  0  0
   -1.5479    2.6488    4.8195 C   0  0  0  0  0  0  0  0  0  0  0  0
   -2.2075    3.2729    3.7424 C   0  0  0  0  0  0  0  0  0  0  0  0
   -3.1616    2.9027    3.3882 H   0  0  0  0  0  0  0  0  0  0  0  0
   -1.6493    4.3933    3.1198 C   0  0  0  0  0  0  0  0  0  0  0  0
   -2.1693    4.8693    2.2978 H   0  0  0  0  0  0  0  0  0  0  0  0
   -0.4235    4.8991    3.5562 C   0  0  0  0  0  0  0  0  0  0  0  0
    0.0071    5.7657    3.0718 H   0  0  0  0  0  0  0  0  0  0  0  0
    0.2485    4.2835    4.6139 C   0  0  0  0  0  0  0  0  0  0  0  0
    1.2042    4.6706    4.9448 H   0  0  0  0  0  0  0  0  0  0  0  0
   -0.3054    3.1633    5.2420 C   0  0  0  0  0  0  0  0  0  0  0  0
    0.2538    2.6922    6.0392 H   0  0  0  0  0  0  0  0  0  0  0  0
   -3.0044    0.6733    4.7408 N   0  0  0  0  0  0  0  0  0  0  0  0
   -3.4608   -1.0024    2.2653 C   0  0  0  0  0  0  0  0  0  0  0  0
   -2.4809   -1.0254    2.7254 H   0  0  0  0  0  0  0  0  0  0  0  0
   -0.8043   -1.1153   -1.7146 C   0  0  0  0  0  0  0  0  0  0  0  0
    0.0081   -0.0381   -1.3142 C   0  0  0  0  0  0  0  0  0  0  0  0
   -0.2693    0.5841   -0.4728 H   0  0  0  0  0  0  0  0  0  0  0  0
    1.1890    0.2546   -2.0015 C   0  0  0  0  0  0  0  0  0  0  0  0
    1.7866    1.0995   -1.6840 H   0  0  0  0  0  0  0  0  0  0  0  0
    1.5946   -0.5327   -3.0905 C   0  0  0  0  0  0  0  0  0  0  0  0
    2.8729   -0.2101   -3.8440 C   0  0  0  0  0  0  0  0  0  0  0  0
    2.6991   -0.3849   -4.9302 H   0  0  0  0  0  0  0  0  0  0  0  0
    3.0889    0.8785   -3.7574 H   0  0  0  0  0  0  0  0  0  0  0  0
    4.0627   -0.9851   -3.4051 N   0  0  0  0  0  0  0  0  0  0  0  0
    4.8177   -0.7278   -4.0850 H   0  0  0  0  0  0  0  0  0  0  0  0
    3.8704   -2.4433   -3.5196 C   0  0  0  0  0  0  0  0  0  0  0  0
    3.1471   -2.7987   -2.7521 H   0  0  0  0  0  0  0  0  0  0  0  0
    3.4659   -2.7080   -4.5219 H   0  0  0  0  0  0  0  0  0  0  0  0
    5.2113   -3.1799   -3.3212 C   0  0  0  0  0  0  0  0  0  0  0  0
    4.9964   -4.2353   -3.0478 H   0  0  0  0  0  0  0  0  0  0  0  0
    5.7454   -3.2139   -4.2982 H   0  0  0  0  0  0  0  0  0  0  0  0
    6.0622   -2.5849   -2.2597 N   0  0  0  0  0  0  0  0  0  0  0  0
    7.2614   -1.9190   -2.7964 C   0  0  0  0  0  0  0  0  0  0  0  0
    7.9000   -1.5482   -1.9670 H   0  0  0  0  0  0  0  0  0  0  0  0
    6.9955   -1.0655   -3.4543 H   0  0  0  0  0  0  0  0  0  0  0  0
    7.8705   -2.6451   -3.3767 H   0  0  0  0  0  0  0  0  0  0  0  0
    5.3173   -1.7140   -1.3292 C   0  0  0  0  0  0  0  0  0  0  0  0
    4.5983   -2.3437   -0.7588 H   0  0  0  0  0  0  0  0  0  0  0  0
    6.0025   -1.2697   -0.5731 H   0  0  0  0  0  0  0  0  0  0  0  0
    4.5365   -0.5918   -2.0519 C   0  0  0  0  0  0  0  0  0  0  0  0
    3.6971   -0.3057   -1.3881 H   0  0  0  0  0  0  0  0  0  0  0  0
    5.1915    0.3044   -2.1359 H   0  0  0  0  0  0  0  0  0  0  0  0
    0.7710   -1.5900   -3.5089 C   0  0  0  0  0  0  0  0  0  0  0  0
    1.0433   -2.1904   -4.3675 H   0  0  0  0  0  0  0  0  0  0  0  0
   -0.4122   -1.8821   -2.8257 C   0  0  0  0  0  0  0  0  0  0  0  0
   -1.0178   -2.7112   -3.1703 H   0  0  0  0  0  0  0  0  0  0  0  0
  1  2  1  0
  2  3  1  0
  3  4  2  0
  4  5  1  0
  5  6  2  0
  6  7  1  0
  6  8  1  0
  8  9  1  0
  8 10  2  0
 10 11  1  0
 11 12  1  0
 11 13  1  0
 11 14  1  0
 10 15  1  0
 15 16  1  0
 16 17  1  0
 16 18  1  0
 18 19  2  0
 19 20  1  0
 20 21  1  0
 20 22  2  0
 22 23  1  0
 22 24  1  0
 24 25  1  0
 25 26  2  0
 26 27  1  0
 26 28  1  0
 28 29  1  0
 28 30  2  0
 30 31  1  0
 30 32  1  0
 32 33  1  0
 32 34  2  0
 34 35  1  0
 24 36  2  0
 15 37  2  0
 37 38  1  0
  3 39  1  0
 39 40  2  0
 40 41  1  0
 40 42  1  0
 42 43  1  0
 42 44  2  0
 44 45  1  0
 45 46  1  0
 45 47  1  0
 45 48  1  0
 48 49  1  0
 48 50  1  0
 50 51  1  0
 50 52  1  0
 50 53  1  0
 53 54  1  0
 53 55  1  0
 53 56  1  0
 56 57  1  0
 57 58  1  0
 57 59  1  0
 57 60  1  0
 56 61  1  0
 61 62  1  0
 61 63  1  0
 61 64  1  0
 64 65  1  0
 64 66  1  0
 44 67  1  0
 67 68  1  0
 67 69  2  0
 69 70  1  0
 37  5  1  0
 69 39  1  0
 36 18  1  0
 64 48  1  0
 34 25  1  0
M  CHG  1  48   1
M  END
>  <UniqueID>  (23) 
23

>  <SMILES>  (23) 
Cc1ccc(/N=C(\O)c2ccc(C[NH+]3CCN(C)CC3)cc2)cc1Nc1nccc(-c2ccccc2)n1

>  <Energy>  (23) 
107.4610718696894

>  <Genealogy>  (23) 
Cc1ccc(NC(=O)c2ccc(C[NH+]3CCN(C)CC3)cc2)cc1Nc1nccc(-c2ccccc2)n1 (protonated)
Cc1ccc(N=C(O)c2ccc(C[NH+]3CCN(C)CC3)cc2)cc1Nc1nccc(-c2ccccc2)n1 (tautomer)
Cc1ccc(/N=C(\O)c2ccc(C[NH+]3CCN(C)CC3)cc2)cc1Nc1nccc(-c2ccccc2)n1 (cis-trans isomerization)
Cc1ccc(/N=C(\O)c2ccc(C[NH+]3CCN(C)CC3)cc2)cc1Nc1nccc(-c2ccccc2)n1 (3D coordinates assigned)
Cc1ccc(/N=C(\O)c2ccc(C[NH+]3CCN(C)CC3)cc2)cc1Nc1nccc(-c2ccccc2)n1 (nonaromatic ring conformer: 107.4610718696894 kcal/mol)

$$$$
CHEMBL4748697
     RDKit          3D

 70 74  0  0  0  0  0  0  0  0999 V2000
   -4.4828   -1.1841   -1.3802 H   0  0  0  0  0  0  0  0  0  0  0  0
   -3.5631   -1.4100   -1.7341 O   0  0  0  0  0  0  0  0  0  0  0  0
   -2.4691   -1.6505   -0.8995 C   0  0  0  0  0  0  0  0  0  0  0  0
   -2.5957   -1.6643    0.3957 N   0  0  0  0  0  0  0  0  0  0  0  0
   -3.8245   -1.5302    1.1154 C   0  0  0  0  0  0  0  0  0  0  0  0
   -4.8046   -2.5244    1.0553 C   0  0  0  0  0  0  0  0  0  0  0  0
   -4.6864   -3.3700    0.3881 H   0  0  0  0  0  0  0  0  0  0  0  0
   -5.9350   -2.4397    1.8712 C   0  0  0  0  0  0  0  0  0  0  0  0
   -6.6816   -3.2214    1.8064 H   0  0  0  0  0  0  0  0  0  0  0  0
   -6.0859   -1.3771    2.7825 C   0  0  0  0  0  0  0  0  0  0  0  0
   -7.2988   -1.3375    3.6715 C   0  0  0  0  0  0  0  0  0  0  0  0
   -7.9439   -0.4741    3.3928 H   0  0  0  0  0  0  0  0  0  0  0  0
   -6.9851   -1.2375    4.7345 H   0  0  0  0  0  0  0  0  0  0  0  0
   -7.8992   -2.2673    3.5894 H   0  0  0  0  0  0  0  0  0  0  0  0
   -5.0992   -0.3655    2.8469 C   0  0  0  0  0  0  0  0  0  0  0  0
   -5.2632    0.7683    3.7267 N   0  0  0  0  0  0  0  0  0  0  0  0
   -6.2326    1.0738    3.9789 H   0  0  0  0  0  0  0  0  0  0  0  0
   -4.1907    1.6169    4.1611 C   0  0  0  0  0  0  0  0  0  0  0  0
   -4.4320    2.9313    4.4182 N   0  0  0  0  0  0  0  0  0  0  0  0
   -3.4206    3.7775    4.7496 C   0  0  0  0  0  0  0  0  0  0  0  0
   -3.6313    4.8221    4.9449 H   0  0  0  0  0  0  0  0  0  0  0  0
   -2.1103    3.3042    4.8194 C   0  0  0  0  0  0  0  0  0  0  0  0
   -1.3061    3.9849    5.0760 H   0  0  0  0  0  0  0  0  0  0  0  0
   -1.8734    1.9387    4.5851 C   0  0  0  0  0  0  0  0  0  0  0  0
   -0.5047    1.3706    4.5988 C   0  0  0  0  0  0  0  0  0  0  0  0
    0.5997    2.1214    4.1437 C   0  0  0  0  0  0  0  0  0  0  0  0
    0.4735    3.1344    3.7770 H   0  0  0  0  0  0  0  0  0  0  0  0
    1.8763    1.5516    4.1194 C   0  0  0  0  0  0  0  0  0  0  0  0
    2.7168    2.1298    3.7585 H   0  0  0  0  0  0  0  0  0  0  0  0
    2.0657    0.2335    4.5453 C   0  0  0  0  0  0  0  0  0  0  0  0
    3.0571   -0.2031    4.5201 H   0  0  0  0  0  0  0  0  0  0  0  0
    0.9764   -0.5209    4.9941 C   0  0  0  0  0  0  0  0  0  0  0  0
    1.1217   -1.5453    5.3201 H   0  0  0  0  0  0  0  0  0  0  0  0
   -0.3039    0.0425    5.0159 C   0  0  0  0  0  0  0  0  0  0  0  0
   -1.1373   -0.5569    5.3665 H   0  0  0  0  0  0  0  0  0  0  0  0
   -2.9241    1.1312    4.2755 N   0  0  0  0  0  0  0  0  0  0  0  0
   -3.9821   -0.4534    1.9891 C   0  0  0  0  0  0  0  0  0  0  0  0
   -3.2387    0.3272    1.9700 H   0  0  0  0  0  0  0  0  0  0  0  0
   -1.1280   -1.8377   -1.4902 C   0  0  0  0  0  0  0  0  0  0  0  0
   -0.1018   -2.4600   -0.7557 C   0  0  0  0  0  0  0  0  0  0  0  0
   -0.2889   -2.8473    0.2410 H   0  0  0  0  0  0  0  0  0  0  0  0
    1.1801   -2.5874   -1.2958 C   0  0  0  0  0  0  0  0  0  0  0  0
    1.9515   -3.0668   -0.7067 H   0  0  0  0  0  0  0  0  0  0  0  0
    1.4638   -2.0780   -2.5727 C   0  0  0  0  0  0  0  0  0  0  0  0
    2.8727   -2.1269   -3.1248 C   0  0  0  0  0  0  0  0  0  0  0  0
    2.8001   -2.2651   -4.2267 H   0  0  0  0  0  0  0  0  0  0  0  0
    3.4082   -3.0227   -2.7388 H   0  0  0  0  0  0  0  0  0  0  0  0
    3.6217   -0.8856   -2.8092 N   0  0  0  0  0  0  0  0  0  0  0  0
    3.0104   -0.0746   -3.0685 H   0  0  0  0  0  0  0  0  0  0  0  0
    3.9521   -0.8006   -1.3604 C   0  0  0  0  0  0  0  0  0  0  0  0
    4.0965   -1.8099   -0.9181 H   0  0  0  0  0  0  0  0  0  0  0  0
    3.1049   -0.3282   -0.8152 H   0  0  0  0  0  0  0  0  0  0  0  0
    5.2368    0.0063   -1.0628 C   0  0  0  0  0  0  0  0  0  0  0  0
    6.1043   -0.6898   -1.0626 H   0  0  0  0  0  0  0  0  0  0  0  0
    5.1844    0.4281   -0.0340 H   0  0  0  0  0  0  0  0  0  0  0  0
    5.4832    1.0722   -2.0515 N   0  0  0  0  0  0  0  0  0  0  0  0
    4.5604    2.2073   -1.8746 C   0  0  0  0  0  0  0  0  0  0  0  0
    3.5044    1.9036   -2.0323 H   0  0  0  0  0  0  0  0  0  0  0  0
    4.8181    3.0260   -2.5844 H   0  0  0  0  0  0  0  0  0  0  0  0
    4.6621    2.6213   -0.8481 H   0  0  0  0  0  0  0  0  0  0  0  0
    5.5229    0.5721   -3.4479 C   0  0  0  0  0  0  0  0  0  0  0  0
    5.0477    1.2939   -4.1514 H   0  0  0  0  0  0  0  0  0  0  0  0
    6.5850    0.4857   -3.7637 H   0  0  0  0  0  0  0  0  0  0  0  0
    4.8430   -0.8004   -3.6346 C   0  0  0  0  0  0  0  0  0  0  0  0
    4.6007   -0.9248   -4.7153 H   0  0  0  0  0  0  0  0  0  0  0  0
    5.5533   -1.6153   -3.3604 H   0  0  0  0  0  0  0  0  0  0  0  0
    0.4398   -1.4540   -3.3086 C   0  0  0  0  0  0  0  0  0  0  0  0
    0.6447   -1.0335   -4.2874 H   0  0  0  0  0  0  0  0  0  0  0  0
   -0.8479   -1.3468   -2.7753 C   0  0  0  0  0  0  0  0  0  0  0  0
   -1.6116   -0.8456   -3.3540 H   0  0  0  0  0  0  0  0  0  0  0  0
  1  2  1  0
  2  3  1  0
  3  4  2  0
  4  5  1  0
  5  6  2  0
  6  7  1  0
  6  8  1  0
  8  9  1  0
  8 10  2  0
 10 11  1  0
 11 12  1  0
 11 13  1  0
 11 14  1  0
 10 15  1  0
 15 16  1  0
 16 17  1  0
 16 18  1  0
 18 19  2  0
 19 20  1  0
 20 21  1  0
 20 22  2  0
 22 23  1  0
 22 24  1  0
 24 25  1  0
 25 26  2  0
 26 27  1  0
 26 28  1  0
 28 29  1  0
 28 30  2  0
 30 31  1  0
 30 32  1  0
 32 33  1  0
 32 34  2  0
 34 35  1  0
 24 36  2  0
 15 37  2  0
 37 38  1  0
  3 39  1  0
 39 40  2  0
 40 41  1  0
 40 42  1  0
 42 43  1  0
 42 44  2  0
 44 45  1  0
 45 46  1  0
 45 47  1  0
 45 48  1  0
 48 49  1  0
 48 50  1  0
 50 51  1  0
 50 52  1  0
 50 53  1  0
 53 54  1  0
 53 55  1  0
 53 56  1  0
 56 57  1  0
 57 58  1  0
 57 59  1  0
 57 60  1  0
 56 61  1  0
 61 62  1  0
 61 63  1  0
 61 64  1  0
 64 65  1  0
 64 66  1  0
 44 67  1  0
 67 68  1  0
 67 69  2  0
 69 70  1  0
 37  5  1  0
 69 39  1  0
 36 18  1  0
 64 48  1  0
 34 25  1  0
M  CHG  1  48   1
M  END
>  <UniqueID>  (24) 
24

>  <SMILES>  (24) 
Cc1ccc(/N=C(\O)c2ccc(C[NH+]3CCN(C)CC3)cc2)cc1Nc1nccc(-c2ccccc2)n1

>  <Energy>  (24) 
108.10996957982799

>  <Genealogy>  (24) 
Cc1ccc(NC(=O)c2ccc(C[NH+]3CCN(C)CC3)cc2)cc1Nc1nccc(-c2ccccc2)n1 (protonated)
Cc1ccc(N=C(O)c2ccc(C[NH+]3CCN(C)CC3)cc2)cc1Nc1nccc(-c2ccccc2)n1 (tautomer)
Cc1ccc(/N=C(\O)c2ccc(C[NH+]3CCN(C)CC3)cc2)cc1Nc1nccc(-c2ccccc2)n1 (cis-trans isomerization)
Cc1ccc(/N=C(\O)c2ccc(C[NH+]3CCN(C)CC3)cc2)cc1Nc1nccc(-c2ccccc2)n1 (3D coordinates assigned)
Cc1ccc(/N=C(\O)c2ccc(C[NH+]3CCN(C)CC3)cc2)cc1Nc1nccc(-c2ccccc2)n1 (nonaromatic ring conformer: 108.10996957982799 kcal/mol)

$$$$
