CHEMBL2386595
     RDKit          3D

 68 72  0  0  0  0  0  0  0  0999 V2000
    7.9435    1.9165    3.1150 H   0  0  0  0  0  0  0  0  0  0  0  0
    8.6227    1.0362    3.0530 C   0  0  0  0  0  0  0  0  0  0  0  0
    9.4319    1.2514    2.3231 H   0  0  0  0  0  0  0  0  0  0  0  0
    9.1082    0.8787    4.0406 H   0  0  0  0  0  0  0  0  0  0  0  0
    7.8834   -0.1712    2.6491 N   0  0  0  0  0  0  0  0  0  0  0  0
    7.2309    0.0128    1.3283 C   0  0  0  0  0  0  0  0  0  0  0  0
    5.7441    0.3879    1.4591 C   0  0  0  0  0  0  0  0  0  0  0  0
    4.9656   -0.6305    2.2145 N   0  0  0  0  0  0  0  0  0  0  0  0
    4.1941   -1.5206    1.3213 C   0  0  0  0  0  0  0  0  0  0  0  0
    2.9211   -0.8444    0.8814 C   0  0  0  0  0  0  0  0  0  0  0  0
    2.8103   -0.2960   -0.4062 C   0  0  0  0  0  0  0  0  0  0  0  0
    1.6312    0.3389   -0.8055 C   0  0  0  0  0  0  0  0  0  0  0  0
    0.5371    0.4268    0.0729 C   0  0  0  0  0  0  0  0  0  0  0  0
   -0.7245    1.0662   -0.3631 C   0  0  0  0  0  0  0  0  0  0  0  0
   -1.8126    0.7344    0.1819 O   0  0  0  0  0  0  0  0  0  0  0  0
   -0.7157    2.0798   -1.3832 N   0  0  0  0  0  0  0  0  0  0  0  0
   -1.8692    2.4091   -2.1725 C   0  0  0  0  0  0  0  0  0  0  0  0
   -2.0720    3.7319   -2.5797 C   0  0  0  0  0  0  0  0  0  0  0  0
   -3.1559    4.0617   -3.3941 C   0  0  0  0  0  0  0  0  0  0  0  0
   -4.0583    3.0712   -3.8184 C   0  0  0  0  0  0  0  0  0  0  0  0
   -5.2133    3.4558   -4.7037 C   0  0  0  0  0  0  0  0  0  0  0  0
   -3.8509    1.7252   -3.4319 C   0  0  0  0  0  0  0  0  0  0  0  0
   -4.7079    0.6781   -3.9307 N   0  0  0  0  0  0  0  0  0  0  0  0
   -5.0098   -0.5178   -3.1968 C   0  0  0  0  0  0  0  0  0  0  0  0
   -5.4398   -1.6271   -3.8571 N   0  0  0  0  0  0  0  0  0  0  0  0
   -5.7278   -2.7705   -3.1842 C   0  0  0  0  0  0  0  0  0  0  0  0
   -5.5844   -2.8205   -1.7964 C   0  0  0  0  0  0  0  0  0  0  0  0
   -5.1496   -1.6679   -1.1212 C   0  0  0  0  0  0  0  0  0  0  0  0
   -4.9266   -1.6514    0.3451 C   0  0  0  0  0  0  0  0  0  0  0  0
   -4.4547   -2.7844    1.0277 C   0  0  0  0  0  0  0  0  0  0  0  0
   -4.1732   -2.7110    2.3927 C   0  0  0  0  0  0  0  0  0  0  0  0
   -4.3649   -1.5041    3.0680 C   0  0  0  0  0  0  0  0  0  0  0  0
   -4.8223   -0.4133    2.3988 N   0  0  0  0  0  0  0  0  0  0  0  0
   -5.1016   -0.4570    1.0699 C   0  0  0  0  0  0  0  0  0  0  0  0
   -4.8877   -0.5445   -1.8410 N   0  0  0  0  0  0  0  0  0  0  0  0
   -2.7479    1.4088   -2.6166 C   0  0  0  0  0  0  0  0  0  0  0  0
    0.6475   -0.1295    1.3598 C   0  0  0  0  0  0  0  0  0  0  0  0
    1.8345   -0.7478    1.7637 C   0  0  0  0  0  0  0  0  0  0  0  0
    5.7922   -1.4215    3.1559 C   0  0  0  0  0  0  0  0  0  0  0  0
    6.9458   -0.5837    3.7191 C   0  0  0  0  0  0  0  0  0  0  0  0
    7.7527    0.7845    0.7136 H   0  0  0  0  0  0  0  0  0  0  0  0
    7.3066   -0.9406    0.7591 H   0  0  0  0  0  0  0  0  0  0  0  0
    5.6698    1.3585    1.9955 H   0  0  0  0  0  0  0  0  0  0  0  0
    5.3267    0.5639    0.4443 H   0  0  0  0  0  0  0  0  0  0  0  0
    3.9075   -2.4587    1.8512 H   0  0  0  0  0  0  0  0  0  0  0  0
    4.8090   -1.8322    0.4452 H   0  0  0  0  0  0  0  0  0  0  0  0
    3.6353   -0.3651   -1.1066 H   0  0  0  0  0  0  0  0  0  0  0  0
    1.5685    0.7396   -1.8108 H   0  0  0  0  0  0  0  0  0  0  0  0
    0.1417    2.6694   -1.4883 H   0  0  0  0  0  0  0  0  0  0  0  0
   -1.3852    4.5090   -2.2648 H   0  0  0  0  0  0  0  0  0  0  0  0
   -3.2879    5.0940   -3.6953 H   0  0  0  0  0  0  0  0  0  0  0  0
   -4.9966    3.1481   -5.7489 H   0  0  0  0  0  0  0  0  0  0  0  0
   -6.1455    2.9640   -4.3564 H   0  0  0  0  0  0  0  0  0  0  0  0
   -5.3915    4.5526   -4.6853 H   0  0  0  0  0  0  0  0  0  0  0  0
   -5.0715    0.7497   -4.9071 H   0  0  0  0  0  0  0  0  0  0  0  0
   -6.0693   -3.6420   -3.7274 H   0  0  0  0  0  0  0  0  0  0  0  0
   -5.8237   -3.7338   -1.2669 H   0  0  0  0  0  0  0  0  0  0  0  0
   -4.2652   -3.7117    0.5022 H   0  0  0  0  0  0  0  0  0  0  0  0
   -3.7953   -3.5765    2.9223 H   0  0  0  0  0  0  0  0  0  0  0  0
   -4.1392   -1.4322    4.1248 H   0  0  0  0  0  0  0  0  0  0  0  0
   -5.4479    0.4471    0.5785 H   0  0  0  0  0  0  0  0  0  0  0  0
   -2.5367    0.3743   -2.3713 H   0  0  0  0  0  0  0  0  0  0  0  0
   -0.1807   -0.0771    2.0566 H   0  0  0  0  0  0  0  0  0  0  0  0
    1.9026   -1.1636    2.7610 H   0  0  0  0  0  0  0  0  0  0  0  0
    6.2201   -2.3235    2.6606 H   0  0  0  0  0  0  0  0  0  0  0  0
    5.1525   -1.7613    3.9969 H   0  0  0  0  0  0  0  0  0  0  0  0
    7.4979   -1.1891    4.4699 H   0  0  0  0  0  0  0  0  0  0  0  0
    6.5122    0.2999    4.2439 H   0  0  0  0  0  0  0  0  0  0  0  0
  1  2  1  0
  2  3  1  0
  2  4  1  0
  2  5  1  0
  5  6  1  0
  6  7  1  0
  7  8  1  0
  8  9  1  0
  9 10  1  0
 10 11  2  0
 11 12  1  0
 12 13  2  0
 13 14  1  0
 14 15  2  0
 14 16  1  0
 16 17  1  0
 17 18  2  0
 18 19  1  0
 19 20  2  0
 20 21  1  0
 20 22  1  0
 22 23  1  0
 23 24  1  0
 24 25  2  0
 25 26  1  0
 26 27  2  0
 27 28  1  0
 28 29  1  0
 29 30  2  0
 30 31  1  0
 31 32  2  0
 32 33  1  0
 33 34  2  0
 28 35  2  0
 22 36  2  0
 13 37  1  0
 37 38  2  0
  8 39  1  0
 39 40  1  0
 40  5  1  0
 38 10  1  0
 36 17  1  0
 35 24  1  0
 34 29  1  0
  6 41  1  0
  6 42  1  0
  7 43  1  0
  7 44  1  0
  9 45  1  0
  9 46  1  0
 11 47  1  0
 12 48  1  0
 16 49  1  0
 18 50  1  0
 19 51  1  0
 21 52  1  0
 21 53  1  0
 21 54  1  0
 23 55  1  0
 26 56  1  0
 27 57  1  0
 30 58  1  0
 31 59  1  0
 32 60  1  0
 34 61  1  0
 36 62  1  0
 37 63  1  0
 38 64  1  0
 39 65  1  0
 39 66  1  0
 40 67  1  0
 40 68  1  0
M  ISO  3   1   2   3   2   4   2
M  END
>  <UniqueID>  (1) 
1

>  <SMILES>  (1) 
[2H]C([2H])([2H])N1CCN(Cc2ccc(C(=O)Nc3ccc(C)c(Nc4nccc(-c5cccnc5)n4)c3)cc2)CC1

>  <Energy>  (1) 
100.13457618879013

>  <Genealogy>  (1) 
[2H]C([2H])([2H])N1CCN(Cc2ccc(C(=O)Nc3ccc(C)c(Nc4nccc(-c5cccnc5)n4)c3)cc2)CC1 (3D coordinates assigned)
[2H]C([2H])([2H])N1CCN(Cc2ccc(C(=O)Nc3ccc(C)c(Nc4nccc(-c5cccnc5)n4)c3)cc2)CC1 (nonaromatic ring conformer: 100.13457618879013 kcal/mol)

$$$$
CHEMBL2386595
     RDKit          3D

 68 72  0  0  0  0  0  0  0  0999 V2000
   -0.1303   -2.3024   -3.2914 H   0  0  0  0  0  0  0  0  0  0  0  0
    0.6103   -1.6388   -3.0996 O   0  0  0  0  0  0  0  0  0  0  0  0
    0.3741   -0.2972   -2.7829 C   0  0  0  0  0  0  0  0  0  0  0  0
   -0.8218    0.2167   -2.8499 N   0  0  0  0  0  0  0  0  0  0  0  0
   -2.0036   -0.4301   -3.3380 C   0  0  0  0  0  0  0  0  0  0  0  0
   -2.0302   -1.0486   -4.5956 C   0  0  0  0  0  0  0  0  0  0  0  0
   -1.1421   -1.0672   -5.2148 H   0  0  0  0  0  0  0  0  0  0  0  0
   -3.2100   -1.6255   -5.0696 C   0  0  0  0  0  0  0  0  0  0  0  0
   -3.2075   -2.0952   -6.0452 H   0  0  0  0  0  0  0  0  0  0  0  0
   -4.3825   -1.5950   -4.2965 C   0  0  0  0  0  0  0  0  0  0  0  0
   -5.6375   -2.2278   -4.8332 C   0  0  0  0  0  0  0  0  0  0  0  0
   -5.4165   -2.9063   -5.6840 H   0  0  0  0  0  0  0  0  0  0  0  0
   -6.1334   -2.8300   -4.0436 H   0  0  0  0  0  0  0  0  0  0  0  0
   -6.3307   -1.4350   -5.1843 H   0  0  0  0  0  0  0  0  0  0  0  0
   -4.3685   -0.9475   -3.0390 C   0  0  0  0  0  0  0  0  0  0  0  0
   -5.5627   -0.8717   -2.2371 N   0  0  0  0  0  0  0  0  0  0  0  0
   -6.4851   -0.7427   -2.7108 H   0  0  0  0  0  0  0  0  0  0  0  0
   -5.5500   -0.9701   -0.8058 C   0  0  0  0  0  0  0  0  0  0  0  0
   -6.6350   -0.5733   -0.0883 N   0  0  0  0  0  0  0  0  0  0  0  0
   -6.6389   -0.6463    1.2688 C   0  0  0  0  0  0  0  0  0  0  0  0
   -7.5124   -0.3259    1.8216 H   0  0  0  0  0  0  0  0  0  0  0  0
   -5.5169   -1.1245    1.9477 C   0  0  0  0  0  0  0  0  0  0  0  0
   -5.5380   -1.1915    3.0269 H   0  0  0  0  0  0  0  0  0  0  0  0
   -4.4007   -1.5333    1.1999 C   0  0  0  0  0  0  0  0  0  0  0  0
   -3.1589   -2.0360    1.8398 C   0  0  0  0  0  0  0  0  0  0  0  0
   -2.3081   -2.9116    1.1374 C   0  0  0  0  0  0  0  0  0  0  0  0
   -2.5635   -3.2528    0.1404 H   0  0  0  0  0  0  0  0  0  0  0  0
   -1.1531   -3.3507    1.7035 N   0  0  0  0  0  0  0  0  0  0  0  0
   -0.7743   -2.9610    2.9491 C   0  0  0  0  0  0  0  0  0  0  0  0
    0.1529   -3.3260    3.3667 H   0  0  0  0  0  0  0  0  0  0  0  0
   -1.5753   -2.0854    3.6818 C   0  0  0  0  0  0  0  0  0  0  0  0
   -1.2690   -1.7602    4.6691 H   0  0  0  0  0  0  0  0  0  0  0  0
   -2.7697   -1.6235    3.1275 C   0  0  0  0  0  0  0  0  0  0  0  0
   -3.3644   -0.9182    3.6930 H   0  0  0  0  0  0  0  0  0  0  0  0
   -4.4601   -1.4618   -0.1581 N   0  0  0  0  0  0  0  0  0  0  0  0
   -3.1814   -0.3397   -2.5927 C   0  0  0  0  0  0  0  0  0  0  0  0
   -3.1664    0.2072   -1.6589 H   0  0  0  0  0  0  0  0  0  0  0  0
    1.5042    0.5399   -2.3140 C   0  0  0  0  0  0  0  0  0  0  0  0
    1.2879    1.8473   -1.8380 C   0  0  0  0  0  0  0  0  0  0  0  0
    0.2921    2.2719   -1.8121 H   0  0  0  0  0  0  0  0  0  0  0  0
    2.3567    2.6231   -1.3820 C   0  0  0  0  0  0  0  0  0  0  0  0
    2.1633    3.6254   -1.0200 H   0  0  0  0  0  0  0  0  0  0  0  0
    3.6626    2.1090   -1.3925 C   0  0  0  0  0  0  0  0  0  0  0  0
    4.8190    2.9502   -0.9109 C   0  0  0  0  0  0  0  0  0  0  0  0
    4.4673    3.9362   -0.5317 H   0  0  0  0  0  0  0  0  0  0  0  0
    5.4631    3.1545   -1.7948 H   0  0  0  0  0  0  0  0  0  0  0  0
    5.5931    2.2447    0.1305 N   0  0  0  0  0  0  0  0  0  0  0  0
    6.9153    2.8860    0.3100 C   0  0  0  0  0  0  0  0  0  0  0  0
    6.8388    3.9952    0.2351 H   0  0  0  0  0  0  0  0  0  0  0  0
    7.5852    2.5380   -0.5067 H   0  0  0  0  0  0  0  0  0  0  0  0
    7.5679    2.5319    1.6656 C   0  0  0  0  0  0  0  0  0  0  0  0
    8.6749    2.4962    1.5572 H   0  0  0  0  0  0  0  0  0  0  0  0
    7.3503    3.3446    2.3955 H   0  0  0  0  0  0  0  0  0  0  0  0
    7.0628    1.2602    2.2186 N   0  0  0  0  0  0  0  0  0  0  0  0
    7.5205    0.0993    1.4350 C   0  0  0  0  0  0  0  0  0  0  0  0
    7.0603    0.0773    0.4230 H   0  0  0  0  0  0  0  0  0  0  0  0
    7.2614   -0.8399    1.9689 H   0  0  0  0  0  0  0  0  0  0  0  0
    8.6265    0.1190    1.3264 H   0  0  0  0  0  0  0  0  0  0  0  0
    5.5907    1.2705    2.4015 C   0  0  0  0  0  0  0  0  0  0  0  0
    5.1734    0.2404    2.3245 H   0  0  0  0  0  0  0  0  0  0  0  0
    5.3644    1.6168    3.4328 H   0  0  0  0  0  0  0  0  0  0  0  0
    4.8558    2.1890    1.4064 C   0  0  0  0  0  0  0  0  0  0  0  0
    4.7419    3.2113    1.8411 H   0  0  0  0  0  0  0  0  0  0  0  0
    3.8339    1.7748    1.2498 H   0  0  0  0  0  0  0  0  0  0  0  0
    3.8846    0.8113   -1.8763 C   0  0  0  0  0  0  0  0  0  0  0  0
    4.8869    0.4016   -1.8982 H   0  0  0  0  0  0  0  0  0  0  0  0
    2.8153    0.0310   -2.3267 C   0  0  0  0  0  0  0  0  0  0  0  0
    3.0178   -0.9700   -2.6872 H   0  0  0  0  0  0  0  0  0  0  0  0
  1  2  1  0
  2  3  1  0
  3  4  2  0
  4  5  1  0
  5  6  2  0
  6  7  1  0
  6  8  1  0
  8  9  1  0
  8 10  2  0
 10 11  1  0
 11 12  1  0
 11 13  1  0
 11 14  1  0
 10 15  1  0
 15 16  1  0
 16 17  1  0
 16 18  1  0
 18 19  2  0
 19 20  1  0
 20 21  1  0
 20 22  2  0
 22 23  1  0
 22 24  1  0
 24 25  1  0
 25 26  2  0
 26 27  1  0
 26 28  1  0
 28 29  2  0
 29 30  1  0
 29 31  1  0
 31 32  1  0
 31 33  2  0
 33 34  1  0
 24 35  2  0
 15 36  2  0
 36 37  1  0
  3 38  1  0
 38 39  2  0
 39 40  1  0
 39 41  1  0
 41 42  1  0
 41 43  2  0
 43 44  1  0
 44 45  1  0
 44 46  1  0
 44 47  1  0
 47 48  1  0
 48 49  1  0
 48 50  1  0
 48 51  1  0
 51 52  1  0
 51 53  1  0
 51 54  1  0
 54 55  1  0
 55 56  1  0
 55 57  1  0
 55 58  1  0
 54 59  1  0
 59 60  1  0
 59 61  1  0
 59 62  1  0
 62 63  1  0
 62 64  1  0
 43 65  1  0
 65 66  1  0
 65 67  2  0
 67 68  1  0
 36  5  1  0
 67 38  1  0
 35 18  1  0
 62 47  1  0
 33 25  1  0
M  ISO  3  56   2  57   2  58   2
M  END
>  <UniqueID>  (2) 
2

>  <SMILES>  (2) 
[2H]C([2H])([2H])N1CCN(Cc2ccc(/C(O)=N/c3ccc(C)c(Nc4nccc(-c5cccnc5)n4)c3)cc2)CC1

>  <Energy>  (2) 
101.23145964026467

>  <Genealogy>  (2) 
[2H]C([2H])([2H])N1CCN(Cc2ccc(C(O)=Nc3ccc(C)c(Nc4nccc(-c5cccnc5)n4)c3)cc2)CC1 (tautomer)
[2H]C([2H])([2H])N1CCN(Cc2ccc(/C(O)=N/c3ccc(C)c(Nc4nccc(-c5cccnc5)n4)c3)cc2)CC1 (cis-trans isomerization)
[2H]C([2H])([2H])N1CCN(Cc2ccc(/C(O)=N/c3ccc(C)c(Nc4nccc(-c5cccnc5)n4)c3)cc2)CC1 (3D coordinates assigned)
[2H]C([2H])([2H])N1CCN(Cc2ccc(/C(O)=N/c3ccc(C)c(Nc4nccc(-c5cccnc5)n4)c3)cc2)CC1 (nonaromatic ring conformer: 101.23145964026467 kcal/mol)

$$$$
CHEMBL1642
     RDKit          3D

 69 73  0  0  0  0  0  0  0  0999 V2000
   -3.2090    5.8823   -3.3515 C   0  0  0  0  0  0  0  0  0  0  0  0
   -2.5018    4.5775   -3.1027 C   0  0  0  0  0  0  0  0  0  0  0  0
   -1.3559    4.2559   -3.8486 C   0  0  0  0  0  0  0  0  0  0  0  0
   -0.6666    3.0640   -3.6157 C   0  0  0  0  0  0  0  0  0  0  0  0
   -1.1311    2.1501   -2.6629 C   0  0  0  0  0  0  0  0  0  0  0  0
   -0.3823    0.9510   -2.4046 N   0  0  0  0  0  0  0  0  0  0  0  0
   -0.9702   -0.2498   -1.8809 C   0  0  0  0  0  0  0  0  0  0  0  0
   -2.1516   -0.5552   -2.2028 O   0  0  0  0  0  0  0  0  0  0  0  0
   -0.2010   -1.1393   -0.9798 C   0  0  0  0  0  0  0  0  0  0  0  0
   -0.5969   -2.4756   -0.7960 C   0  0  0  0  0  0  0  0  0  0  0  0
    0.1056   -3.3101    0.0780 C   0  0  0  0  0  0  0  0  0  0  0  0
    1.2060   -2.8187    0.7950 C   0  0  0  0  0  0  0  0  0  0  0  0
    1.9692   -3.7293    1.7216 C   0  0  0  0  0  0  0  0  0  0  0  0
    2.7750   -4.7011    0.9538 N   0  0  0  0  0  0  0  0  0  0  0  0
    3.8944   -4.0329    0.2505 C   0  0  0  0  0  0  0  0  0  0  0  0
    4.9775   -5.0325   -0.2198 C   0  0  0  0  0  0  0  0  0  0  0  0
    4.4766   -6.4217   -0.2979 N   0  0  0  0  0  0  0  0  0  0  0  0
    3.5016   -6.5922   -1.3944 C   0  0  0  0  0  0  0  0  0  0  0  0
    3.9367   -6.8882    1.0059 C   0  0  0  0  0  0  0  0  0  0  0  0
    3.2816   -5.7653    1.8356 C   0  0  0  0  0  0  0  0  0  0  0  0
    1.6052   -1.4852    0.6142 C   0  0  0  0  0  0  0  0  0  0  0  0
    0.9073   -0.6522   -0.2639 C   0  0  0  0  0  0  0  0  0  0  0  0
   -2.2872    2.4563   -1.9281 C   0  0  0  0  0  0  0  0  0  0  0  0
   -2.9648    3.6749   -2.1188 C   0  0  0  0  0  0  0  0  0  0  0  0
   -4.1170    3.9928   -1.3147 N   0  0  0  0  0  0  0  0  0  0  0  0
   -4.1605    3.7914    0.1066 C   0  0  0  0  0  0  0  0  0  0  0  0
   -5.2870    4.0979    0.7994 N   0  0  0  0  0  0  0  0  0  0  0  0
   -5.3431    3.9318    2.1454 C   0  0  0  0  0  0  0  0  0  0  0  0
   -4.2367    3.4402    2.8396 C   0  0  0  0  0  0  0  0  0  0  0  0
   -3.0744    3.1135    2.1165 C   0  0  0  0  0  0  0  0  0  0  0  0
   -1.8491    2.5451    2.7543 C   0  0  0  0  0  0  0  0  0  0  0  0
   -0.6553    2.4447    2.0112 C   0  0  0  0  0  0  0  0  0  0  0  0
    0.4923    1.8933    2.5823 C   0  0  0  0  0  0  0  0  0  0  0  0
    0.4488    1.4373    3.8974 C   0  0  0  0  0  0  0  0  0  0  0  0
   -0.7048    1.5243    4.6073 N   0  0  0  0  0  0  0  0  0  0  0  0
   -1.8390    2.0567    4.0784 C   0  0  0  0  0  0  0  0  0  0  0  0
   -3.0743    3.3183    0.7717 N   0  0  0  0  0  0  0  0  0  0  0  0
   -4.1910    5.6846   -3.8325 H   0  0  0  0  0  0  0  0  0  0  0  0
   -2.6165    6.5479   -4.0150 H   0  0  0  0  0  0  0  0  0  0  0  0
   -3.3719    6.4136   -2.3911 H   0  0  0  0  0  0  0  0  0  0  0  0
   -0.9862    4.9345   -4.6088 H   0  0  0  0  0  0  0  0  0  0  0  0
    0.2272    2.8457   -4.1872 H   0  0  0  0  0  0  0  0  0  0  0  0
    0.6417    0.9468   -2.6188 H   0  0  0  0  0  0  0  0  0  0  0  0
   -1.4473   -2.8794   -1.3327 H   0  0  0  0  0  0  0  0  0  0  0  0
   -0.2092   -4.3398    0.1983 H   0  0  0  0  0  0  0  0  0  0  0  0
    1.2219   -4.2629    2.3503 H   0  0  0  0  0  0  0  0  0  0  0  0
    2.6100   -3.1444    2.4210 H   0  0  0  0  0  0  0  0  0  0  0  0
    4.3780   -3.2661    0.8988 H   0  0  0  0  0  0  0  0  0  0  0  0
    3.4914   -3.5109   -0.6449 H   0  0  0  0  0  0  0  0  0  0  0  0
    5.8269   -4.9961    0.5013 H   0  0  0  0  0  0  0  0  0  0  0  0
    5.3916   -4.7079   -1.2026 H   0  0  0  0  0  0  0  0  0  0  0  0
    5.2974   -7.0297   -0.5340 H   0  0  0  0  0  0  0  0  0  0  0  0
    3.2759   -7.6713   -1.5421 H   0  0  0  0  0  0  0  0  0  0  0  0
    2.5462   -6.0656   -1.1836 H   0  0  0  0  0  0  0  0  0  0  0  0
    3.9179   -6.2065   -2.3522 H   0  0  0  0  0  0  0  0  0  0  0  0
    3.2029   -7.7132    0.8599 H   0  0  0  0  0  0  0  0  0  0  0  0
    4.7613   -7.3246    1.6129 H   0  0  0  0  0  0  0  0  0  0  0  0
    4.0205   -5.3465    2.5566 H   0  0  0  0  0  0  0  0  0  0  0  0
    2.4514   -6.2122    2.4257 H   0  0  0  0  0  0  0  0  0  0  0  0
    2.4565   -1.0897    1.1541 H   0  0  0  0  0  0  0  0  0  0  0  0
    1.2243    0.3784   -0.3634 H   0  0  0  0  0  0  0  0  0  0  0  0
   -2.6509    1.7560   -1.1880 H   0  0  0  0  0  0  0  0  0  0  0  0
   -4.9207    4.4921   -1.7577 H   0  0  0  0  0  0  0  0  0  0  0  0
   -6.2479    4.1866    2.6797 H   0  0  0  0  0  0  0  0  0  0  0  0
   -4.3022    3.3350    3.9119 H   0  0  0  0  0  0  0  0  0  0  0  0
   -0.6038    2.7921    0.9868 H   0  0  0  0  0  0  0  0  0  0  0  0
    1.4071    1.8166    2.0088 H   0  0  0  0  0  0  0  0  0  0  0  0
    1.3313    1.0084    4.3539 H   0  0  0  0  0  0  0  0  0  0  0  0
   -2.7232    2.0692    4.6953 H   0  0  0  0  0  0  0  0  0  0  0  0
  1  2  1  0
  2  3  2  0
  3  4  1  0
  4  5  2  0
  5  6  1  0
  6  7  1  0
  7  8  2  0
  7  9  1  0
  9 10  2  0
 10 11  1  0
 11 12  2  0
 12 13  1  0
 13 14  1  0
 14 15  1  0
 15 16  1  0
 16 17  1  0
 17 18  1  0
 17 19  1  0
 19 20  1  0
 12 21  1  0
 21 22  2  0
  5 23  1  0
 23 24  2  0
 24 25  1  0
 25 26  1  0
 26 27  2  0
 27 28  1  0
 28 29  2  0
 29 30  1  0
 30 31  1  0
 31 32  2  0
 32 33  1  0
 33 34  2  0
 34 35  1  0
 35 36  2  0
 30 37  2  0
 24  2  1  0
 37 26  1  0
 22  9  1  0
 36 31  1  0
 20 14  1  0
  1 38  1  0
  1 39  1  0
  1 40  1  0
  3 41  1  0
  4 42  1  0
  6 43  1  0
 10 44  1  0
 11 45  1  0
 13 46  1  0
 13 47  1  0
 15 48  1  0
 15 49  1  0
 16 50  1  0
 16 51  1  0
 17 52  1  0
 18 53  1  0
 18 54  1  0
 18 55  1  0
 19 56  1  0
 19 57  1  0
 20 58  1  0
 20 59  1  0
 21 60  1  0
 22 61  1  0
 23 62  1  0
 25 63  1  0
 28 64  1  0
 29 65  1  0
 32 66  1  0
 33 67  1  0
 34 68  1  0
 36 69  1  0
M  CHG  1  17   1
M  END
>  <UniqueID>  (3) 
3

>  <SMILES>  (3) 
Cc1ccc(NC(=O)c2ccc(CN3CC[NH+](C)CC3)cc2)cc1Nc1nccc(-c2cccnc2)n1

>  <Energy>  (3) 
98.12433385056706

>  <Genealogy>  (3) 
Cc1ccc(NC(=O)c2ccc(CN3CC[NH+](C)CC3)cc2)cc1Nc1nccc(-c2cccnc2)n1 (protonated)
Cc1ccc(NC(=O)c2ccc(CN3CC[NH+](C)CC3)cc2)cc1Nc1nccc(-c2cccnc2)n1 (3D coordinates assigned)
Cc1ccc(NC(=O)c2ccc(CN3CC[NH+](C)CC3)cc2)cc1Nc1nccc(-c2cccnc2)n1 (nonaromatic ring conformer: 98.12433385056706 kcal/mol)

$$$$
CHEMBL1642
     RDKit          3D

 69 73  0  0  0  0  0  0  0  0999 V2000
   -3.9036    4.2453   -3.9983 C   0  0  0  0  0  0  0  0  0  0  0  0
   -2.9007    3.3921   -3.2704 C   0  0  0  0  0  0  0  0  0  0  0  0
   -2.5292    2.1497   -3.8112 C   0  0  0  0  0  0  0  0  0  0  0  0
   -1.6228    1.3258   -3.1411 C   0  0  0  0  0  0  0  0  0  0  0  0
   -1.0473    1.7440   -1.9343 C   0  0  0  0  0  0  0  0  0  0  0  0
   -0.1343    0.9006   -1.2168 N   0  0  0  0  0  0  0  0  0  0  0  0
   -0.4012   -0.4886   -0.9632 C   0  0  0  0  0  0  0  0  0  0  0  0
   -1.5175   -0.9826   -1.2838 O   0  0  0  0  0  0  0  0  0  0  0  0
    0.5970   -1.3395   -0.2772 C   0  0  0  0  0  0  0  0  0  0  0  0
    0.1759   -2.4411    0.4852 C   0  0  0  0  0  0  0  0  0  0  0  0
    1.1092   -3.2500    1.1376 C   0  0  0  0  0  0  0  0  0  0  0  0
    2.4843   -2.9942    1.0148 C   0  0  0  0  0  0  0  0  0  0  0  0
    3.4937   -3.8871    1.7089 C   0  0  0  0  0  0  0  0  0  0  0  0
    3.9644   -5.0194    0.8798 N   0  0  0  0  0  0  0  0  0  0  0  0
    4.7881   -4.6309   -0.2903 C   0  0  0  0  0  0  0  0  0  0  0  0
    4.0524   -4.8723   -1.6190 C   0  0  0  0  0  0  0  0  0  0  0  0
    3.6336   -6.2925   -1.7830 N   0  0  0  0  0  0  0  0  0  0  0  0
    4.6120   -7.0411   -2.5916 C   0  0  0  0  0  0  0  0  0  0  0  0
    3.3918   -6.9943   -0.4948 C   0  0  0  0  0  0  0  0  0  0  0  0
    2.9174   -6.0233    0.5907 C   0  0  0  0  0  0  0  0  0  0  0  0
    2.9052   -1.8825    0.2674 C   0  0  0  0  0  0  0  0  0  0  0  0
    1.9713   -1.0654   -0.3766 C   0  0  0  0  0  0  0  0  0  0  0  0
   -1.3659    3.0066   -1.4226 C   0  0  0  0  0  0  0  0  0  0  0  0
   -2.3201    3.8219   -2.0559 C   0  0  0  0  0  0  0  0  0  0  0  0
   -2.7127    5.0701   -1.4553 N   0  0  0  0  0  0  0  0  0  0  0  0
   -3.0737    5.1835   -0.0701 C   0  0  0  0  0  0  0  0  0  0  0  0
   -3.5290    6.3666    0.4178 N   0  0  0  0  0  0  0  0  0  0  0  0
   -3.9090    6.4847    1.7161 C   0  0  0  0  0  0  0  0  0  0  0  0
   -3.8359    5.3842    2.5718 C   0  0  0  0  0  0  0  0  0  0  0  0
   -3.3505    4.1648    2.0658 C   0  0  0  0  0  0  0  0  0  0  0  0
   -3.2004    2.9383    2.9033 C   0  0  0  0  0  0  0  0  0  0  0  0
   -2.9594    1.6943    2.2855 C   0  0  0  0  0  0  0  0  0  0  0  0
   -2.7852    0.5426    3.0523 C   0  0  0  0  0  0  0  0  0  0  0  0
   -2.8537    0.6308    4.4406 C   0  0  0  0  0  0  0  0  0  0  0  0
   -3.0790    1.8319    5.0341 N   0  0  0  0  0  0  0  0  0  0  0  0
   -3.2477    2.9721    4.3122 C   0  0  0  0  0  0  0  0  0  0  0  0
   -2.9993    4.1052    0.7533 N   0  0  0  0  0  0  0  0  0  0  0  0
   -3.3845    5.1006   -4.4770 H   0  0  0  0  0  0  0  0  0  0  0  0
   -4.6681    4.6288   -3.2906 H   0  0  0  0  0  0  0  0  0  0  0  0
   -4.4335    3.6667   -4.7841 H   0  0  0  0  0  0  0  0  0  0  0  0
   -2.9540    1.8082   -4.7467 H   0  0  0  0  0  0  0  0  0  0  0  0
   -1.3593    0.3679   -3.5719 H   0  0  0  0  0  0  0  0  0  0  0  0
    0.6321    1.3635   -0.6791 H   0  0  0  0  0  0  0  0  0  0  0  0
   -0.8784   -2.6678    0.5908 H   0  0  0  0  0  0  0  0  0  0  0  0
    0.7577   -4.0827    1.7342 H   0  0  0  0  0  0  0  0  0  0  0  0
    3.0530   -4.2846    2.6494 H   0  0  0  0  0  0  0  0  0  0  0  0
    4.3676   -3.2799    2.0306 H   0  0  0  0  0  0  0  0  0  0  0  0
    5.7145   -5.2444   -0.2842 H   0  0  0  0  0  0  0  0  0  0  0  0
    5.1227   -3.5748   -0.2332 H   0  0  0  0  0  0  0  0  0  0  0  0
    4.6966   -4.5329   -2.4614 H   0  0  0  0  0  0  0  0  0  0  0  0
    3.1542   -4.2148   -1.6396 H   0  0  0  0  0  0  0  0  0  0  0  0
    2.7327   -6.2940   -2.3192 H   0  0  0  0  0  0  0  0  0  0  0  0
    4.2934   -8.1016   -2.7041 H   0  0  0  0  0  0  0  0  0  0  0  0
    4.6865   -6.6052   -3.6121 H   0  0  0  0  0  0  0  0  0  0  0  0
    5.6182   -7.0192   -2.1189 H   0  0  0  0  0  0  0  0  0  0  0  0
    2.6218   -7.7859   -0.6346 H   0  0  0  0  0  0  0  0  0  0  0  0
    4.3169   -7.4947   -0.1252 H   0  0  0  0  0  0  0  0  0  0  0  0
    2.6882   -6.5915    1.5171 H   0  0  0  0  0  0  0  0  0  0  0  0
    1.9829   -5.5484    0.2303 H   0  0  0  0  0  0  0  0  0  0  0  0
    3.9566   -1.6401    0.1850 H   0  0  0  0  0  0  0  0  0  0  0  0
    2.3287   -0.2317   -0.9670 H   0  0  0  0  0  0  0  0  0  0  0  0
   -0.8860    3.3410   -0.5116 H   0  0  0  0  0  0  0  0  0  0  0  0
   -2.8982    5.8924   -2.0735 H   0  0  0  0  0  0  0  0  0  0  0  0
   -4.2763    7.4339    2.0839 H   0  0  0  0  0  0  0  0  0  0  0  0
   -4.1673    5.4977    3.5934 H   0  0  0  0  0  0  0  0  0  0  0  0
   -2.9048    1.6066    1.2076 H   0  0  0  0  0  0  0  0  0  0  0  0
   -2.5983   -0.4100    2.5730 H   0  0  0  0  0  0  0  0  0  0  0  0
   -2.7232   -0.2546    5.0480 H   0  0  0  0  0  0  0  0  0  0  0  0
   -3.3932    3.8954    4.8511 H   0  0  0  0  0  0  0  0  0  0  0  0
  1  2  1  0
  2  3  2  0
  3  4  1  0
  4  5  2  0
  5  6  1  0
  6  7  1  0
  7  8  2  0
  7  9  1  0
  9 10  2  0
 10 11  1  0
 11 12  2  0
 12 13  1  0
 13 14  1  0
 14 15  1  0
 15 16  1  0
 16 17  1  0
 17 18  1  0
 17 19  1  0
 19 20  1  0
 12 21  1  0
 21 22  2  0
  5 23  1  0
 23 24  2  0
 24 25  1  0
 25 26  1  0
 26 27  2  0
 27 28  1  0
 28 29  2  0
 29 30  1  0
 30 31  1  0
 31 32  2  0
 32 33  1  0
 33 34  2  0
 34 35  1  0
 35 36  2  0
 30 37  2  0
 24  2  1  0
 37 26  1  0
 22  9  1  0
 36 31  1  0
 20 14  1  0
  1 38  1  0
  1 39  1  0
  1 40  1  0
  3 41  1  0
  4 42  1  0
  6 43  1  0
 10 44  1  0
 11 45  1  0
 13 46  1  0
 13 47  1  0
 15 48  1  0
 15 49  1  0
 16 50  1  0
 16 51  1  0
 17 52  1  0
 18 53  1  0
 18 54  1  0
 18 55  1  0
 19 56  1  0
 19 57  1  0
 20 58  1  0
 20 59  1  0
 21 60  1  0
 22 61  1  0
 23 62  1  0
 25 63  1  0
 28 64  1  0
 29 65  1  0
 32 66  1  0
 33 67  1  0
 34 68  1  0
 36 69  1  0
M  CHG  1  17   1
M  END
>  <UniqueID>  (4) 
4

>  <SMILES>  (4) 
Cc1ccc(NC(=O)c2ccc(CN3CC[NH+](C)CC3)cc2)cc1Nc1nccc(-c2cccnc2)n1

>  <Energy>  (4) 
104.41543953478009

>  <Genealogy>  (4) 
Cc1ccc(NC(=O)c2ccc(CN3CC[NH+](C)CC3)cc2)cc1Nc1nccc(-c2cccnc2)n1 (protonated)
Cc1ccc(NC(=O)c2ccc(CN3CC[NH+](C)CC3)cc2)cc1Nc1nccc(-c2cccnc2)n1 (3D coordinates assigned)
Cc1ccc(NC(=O)c2ccc(CN3CC[NH+](C)CC3)cc2)cc1Nc1nccc(-c2cccnc2)n1 (nonaromatic ring conformer: 104.41543953478009 kcal/mol)

$$$$
CHEMBL3098615
     RDKit          3D

 72 76  0  0  0  0  0  0  0  0999 V2000
   -7.8197    3.6175   -0.7587 C   0  0  0  0  0  0  0  0  0  0  0  0
   -6.3136    3.6096   -0.7712 C   0  0  0  0  0  0  0  0  0  0  0  0
   -5.6222    4.8214   -0.5783 C   0  0  0  0  0  0  0  0  0  0  0  0
   -4.2276    4.8508   -0.5676 C   0  0  0  0  0  0  0  0  0  0  0  0
   -3.5044    3.6719   -0.7462 C   0  0  0  0  0  0  0  0  0  0  0  0
   -2.0769    3.6887   -0.6770 N   0  0  0  0  0  0  0  0  0  0  0  0
   -1.3836    2.9492    0.3372 C   0  0  0  0  0  0  0  0  0  0  0  0
   -1.9650    2.7048    1.4317 O   0  0  0  0  0  0  0  0  0  0  0  0
    0.0034    2.4816    0.1283 C   0  0  0  0  0  0  0  0  0  0  0  0
    0.8166    2.1701    1.2322 C   0  0  0  0  0  0  0  0  0  0  0  0
    2.1109    1.6810    1.0432 C   0  0  0  0  0  0  0  0  0  0  0  0
    2.6133    1.4894   -0.2531 C   0  0  0  0  0  0  0  0  0  0  0  0
    3.9832    0.8953   -0.4606 C   0  0  0  0  0  0  0  0  0  0  0  0
    3.8925   -0.5437   -0.7913 N   0  0  0  0  0  0  0  0  0  0  0  0
    5.1992   -1.0749   -1.2578 C   0  0  0  0  0  0  0  0  0  0  0  0
    5.9392   -1.8417   -0.1529 C   0  0  0  0  0  0  0  0  0  0  0  0
    5.1636   -3.0224    0.2913 N   0  0  0  0  0  0  0  0  0  0  0  0
    5.6395   -3.5062    1.6075 C   0  0  0  0  0  0  0  0  0  0  0  0
    5.6205   -5.0389    1.6602 C   0  0  0  0  0  0  0  0  0  0  0  0
    4.3111   -5.5358    1.6060 O   0  0  0  0  0  0  0  0  0  0  0  0
    3.6927   -2.8060    0.2563 C   0  0  0  0  0  0  0  0  0  0  0  0
    3.3184   -1.3197    0.3366 C   0  0  0  0  0  0  0  0  0  0  0  0
    1.8023    1.7924   -1.3567 C   0  0  0  0  0  0  0  0  0  0  0  0
    0.5112    2.2935   -1.1690 C   0  0  0  0  0  0  0  0  0  0  0  0
   -4.1775    2.4699   -0.9921 C   0  0  0  0  0  0  0  0  0  0  0  0
   -5.5851    2.4126   -0.9923 C   0  0  0  0  0  0  0  0  0  0  0  0
   -6.2801    1.1819   -1.2954 N   0  0  0  0  0  0  0  0  0  0  0  0
   -5.8134   -0.1488   -1.0076 C   0  0  0  0  0  0  0  0  0  0  0  0
   -6.5565   -1.2149   -1.4075 N   0  0  0  0  0  0  0  0  0  0  0  0
   -6.1503   -2.4870   -1.1605 C   0  0  0  0  0  0  0  0  0  0  0  0
   -4.9475   -2.7188   -0.4944 C   0  0  0  0  0  0  0  0  0  0  0  0
   -4.1793   -1.6159   -0.0873 C   0  0  0  0  0  0  0  0  0  0  0  0
   -2.8587   -1.7753    0.5747 C   0  0  0  0  0  0  0  0  0  0  0  0
   -2.3550   -0.7525    1.3957 C   0  0  0  0  0  0  0  0  0  0  0  0
   -1.0954   -0.8751    1.9851 C   0  0  0  0  0  0  0  0  0  0  0  0
   -0.3385   -2.0217    1.7472 C   0  0  0  0  0  0  0  0  0  0  0  0
   -0.8261   -3.0029    0.9443 N   0  0  0  0  0  0  0  0  0  0  0  0
   -2.0514   -2.9090    0.3598 C   0  0  0  0  0  0  0  0  0  0  0  0
   -4.6490   -0.3627   -0.3375 N   0  0  0  0  0  0  0  0  0  0  0  0
   -8.1998    2.8092   -0.0983 H   0  0  0  0  0  0  0  0  0  0  0  0
   -8.2211    4.5813   -0.3770 H   0  0  0  0  0  0  0  0  0  0  0  0
   -8.2055    3.4654   -1.7887 H   0  0  0  0  0  0  0  0  0  0  0  0
   -6.1667    5.7469   -0.4240 H   0  0  0  0  0  0  0  0  0  0  0  0
   -3.7105    5.7884   -0.3999 H   0  0  0  0  0  0  0  0  0  0  0  0
   -1.5443    4.2836   -1.3546 H   0  0  0  0  0  0  0  0  0  0  0  0
    0.4497    2.3013    2.2432 H   0  0  0  0  0  0  0  0  0  0  0  0
    2.7164    1.4399    1.9085 H   0  0  0  0  0  0  0  0  0  0  0  0
    4.6240    1.0550    0.4362 H   0  0  0  0  0  0  0  0  0  0  0  0
    4.4622    1.4510   -1.2966 H   0  0  0  0  0  0  0  0  0  0  0  0
    5.0130   -1.7678   -2.1079 H   0  0  0  0  0  0  0  0  0  0  0  0
    5.8638   -0.2743   -1.6508 H   0  0  0  0  0  0  0  0  0  0  0  0
    6.1296   -1.1437    0.6962 H   0  0  0  0  0  0  0  0  0  0  0  0
    6.9214   -2.1817   -0.5483 H   0  0  0  0  0  0  0  0  0  0  0  0
    5.0410   -3.0778    2.4436 H   0  0  0  0  0  0  0  0  0  0  0  0
    6.6971   -3.1992    1.7826 H   0  0  0  0  0  0  0  0  0  0  0  0
    6.1240   -5.3888    2.5896 H   0  0  0  0  0  0  0  0  0  0  0  0
    6.1936   -5.4421    0.7975 H   0  0  0  0  0  0  0  0  0  0  0  0
    3.9171   -5.3982    2.5065 H   0  0  0  0  0  0  0  0  0  0  0  0
    3.2984   -3.2193   -0.6972 H   0  0  0  0  0  0  0  0  0  0  0  0
    3.1664   -3.3459    1.0728 H   0  0  0  0  0  0  0  0  0  0  0  0
    3.6685   -0.9288    1.3184 H   0  0  0  0  0  0  0  0  0  0  0  0
    2.2125   -1.2332    0.3079 H   0  0  0  0  0  0  0  0  0  0  0  0
    2.1682    1.6330   -2.3634 H   0  0  0  0  0  0  0  0  0  0  0  0
   -0.0999    2.4984   -2.0396 H   0  0  0  0  0  0  0  0  0  0  0  0
   -3.5804    1.6031   -1.2276 H   0  0  0  0  0  0  0  0  0  0  0  0
   -7.2160    1.2449   -1.7499 H   0  0  0  0  0  0  0  0  0  0  0  0
   -6.7621   -3.3190   -1.4839 H   0  0  0  0  0  0  0  0  0  0  0  0
   -4.6425   -3.7373   -0.2927 H   0  0  0  0  0  0  0  0  0  0  0  0
   -2.9394    0.1369    1.5888 H   0  0  0  0  0  0  0  0  0  0  0  0
   -0.7119   -0.0898    2.6238 H   0  0  0  0  0  0  0  0  0  0  0  0
    0.6403   -2.1275    2.1963 H   0  0  0  0  0  0  0  0  0  0  0  0
   -2.3719   -3.7048   -0.2975 H   0  0  0  0  0  0  0  0  0  0  0  0
  1  2  1  0
  2  3  2  0
  3  4  1  0
  4  5  2  0
  5  6  1  0
  6  7  1  0
  7  8  2  0
  7  9  1  0
  9 10  2  0
 10 11  1  0
 11 12  2  0
 12 13  1  0
 13 14  1  0
 14 15  1  0
 15 16  1  0
 16 17  1  0
 17 18  1  0
 18 19  1  0
 19 20  1  0
 17 21  1  0
 21 22  1  0
 12 23  1  0
 23 24  2  0
  5 25  1  0
 25 26  2  0
 26 27  1  0
 27 28  1  0
 28 29  2  0
 29 30  1  0
 30 31  2  0
 31 32  1  0
 32 33  1  0
 33 34  2  0
 34 35  1  0
 35 36  2  0
 36 37  1  0
 37 38  2  0
 32 39  2  0
 26  2  1  0
 39 28  1  0
 24  9  1  0
 38 33  1  0
 22 14  1  0
  1 40  1  0
  1 41  1  0
  1 42  1  0
  3 43  1  0
  4 44  1  0
  6 45  1  0
 10 46  1  0
 11 47  1  0
 13 48  1  0
 13 49  1  0
 15 50  1  0
 15 51  1  0
 16 52  1  0
 16 53  1  0
 18 54  1  0
 18 55  1  0
 19 56  1  0
 19 57  1  0
 20 58  1  0
 21 59  1  0
 21 60  1  0
 22 61  1  0
 22 62  1  0
 23 63  1  0
 24 64  1  0
 25 65  1  0
 27 66  1  0
 30 67  1  0
 31 68  1  0
 34 69  1  0
 35 70  1  0
 36 71  1  0
 38 72  1  0
M  END
>  <UniqueID>  (5) 
5

>  <SMILES>  (5) 
Cc1ccc(NC(=O)c2ccc(CN3CCN(CCO)CC3)cc2)cc1Nc1nccc(-c2cccnc2)n1

>  <Energy>  (5) 
104.92655755099896

>  <Genealogy>  (5) 
Cc1ccc(NC(=O)c2ccc(CN3CCN(CCO)CC3)cc2)cc1Nc1nccc(-c2cccnc2)n1 (3D coordinates assigned)
Cc1ccc(NC(=O)c2ccc(CN3CCN(CCO)CC3)cc2)cc1Nc1nccc(-c2cccnc2)n1 (nonaromatic ring conformer: 104.92655755099896 kcal/mol)

$$$$
CHEMBL3098615
     RDKit          3D

 72 76  0  0  0  0  0  0  0  0999 V2000
   -5.8416    3.1586    0.5720 C   0  0  0  0  0  0  0  0  0  0  0  0
   -4.4314    2.6359    0.5178 C   0  0  0  0  0  0  0  0  0  0  0  0
   -3.4174    3.3030    1.2231 C   0  0  0  0  0  0  0  0  0  0  0  0
   -2.1030    2.8387    1.1882 C   0  0  0  0  0  0  0  0  0  0  0  0
   -1.7643    1.7154    0.4137 C   0  0  0  0  0  0  0  0  0  0  0  0
   -0.4205    1.1954    0.3762 N   0  0  0  0  0  0  0  0  0  0  0  0
    0.7596    1.9607    0.6775 C   0  0  0  0  0  0  0  0  0  0  0  0
    0.7410    3.2186    0.6003 O   0  0  0  0  0  0  0  0  0  0  0  0
    2.0041    1.2880    1.0952 C   0  0  0  0  0  0  0  0  0  0  0  0
    2.4665    0.1414    0.4293 C   0  0  0  0  0  0  0  0  0  0  0  0
    3.6396   -0.4936    0.8506 C   0  0  0  0  0  0  0  0  0  0  0  0
    4.3580   -0.0029    1.9517 C   0  0  0  0  0  0  0  0  0  0  0  0
    5.5883   -0.7230    2.4560 C   0  0  0  0  0  0  0  0  0  0  0  0
    6.8484   -0.2719    1.8251 N   0  0  0  0  0  0  0  0  0  0  0  0
    7.2040    1.1447    2.0378 C   0  0  0  0  0  0  0  0  0  0  0  0
    6.6539    2.0864    0.9401 C   0  0  0  0  0  0  0  0  0  0  0  0
    6.3032    1.3790   -0.3141 N   0  0  0  0  0  0  0  0  0  0  0  0
    6.2421    2.3143   -1.4605 C   0  0  0  0  0  0  0  0  0  0  0  0
    4.9849    3.1842   -1.4103 C   0  0  0  0  0  0  0  0  0  0  0  0
    3.8450    2.3731   -1.4239 O   0  0  0  0  0  0  0  0  0  0  0  0
    7.2713    0.3057   -0.5825 C   0  0  0  0  0  0  0  0  0  0  0  0
    7.1123   -0.7992    0.4683 C   0  0  0  0  0  0  0  0  0  0  0  0
    3.8852    1.1344    2.6220 C   0  0  0  0  0  0  0  0  0  0  0  0
    2.7316    1.7888    2.1840 C   0  0  0  0  0  0  0  0  0  0  0  0
   -2.7804    1.0355   -0.2763 C   0  0  0  0  0  0  0  0  0  0  0  0
   -4.1152    1.4719   -0.2167 C   0  0  0  0  0  0  0  0  0  0  0  0
   -5.1469    0.7411   -0.9040 N   0  0  0  0  0  0  0  0  0  0  0  0
   -5.3561   -0.6683   -0.7357 C   0  0  0  0  0  0  0  0  0  0  0  0
   -4.4698   -1.4277   -0.0367 N   0  0  0  0  0  0  0  0  0  0  0  0
   -4.6809   -2.7548    0.1509 C   0  0  0  0  0  0  0  0  0  0  0  0
   -5.8313   -3.3570   -0.3554 C   0  0  0  0  0  0  0  0  0  0  0  0
   -6.7448   -2.5697   -1.0744 C   0  0  0  0  0  0  0  0  0  0  0  0
   -8.0074   -3.1340   -1.6224 C   0  0  0  0  0  0  0  0  0  0  0  0
   -9.1210   -2.3003   -1.8230 C   0  0  0  0  0  0  0  0  0  0  0  0
  -10.3041   -2.8206   -2.3468 C   0  0  0  0  0  0  0  0  0  0  0  0
  -10.3702   -4.1747   -2.6744 C   0  0  0  0  0  0  0  0  0  0  0  0
   -9.2880   -4.9735   -2.4850 N   0  0  0  0  0  0  0  0  0  0  0  0
   -8.1232   -4.4928   -1.9759 C   0  0  0  0  0  0  0  0  0  0  0  0
   -6.4805   -1.2431   -1.2396 N   0  0  0  0  0  0  0  0  0  0  0  0
   -5.9328    4.0225    1.2662 H   0  0  0  0  0  0  0  0  0  0  0  0
   -6.5326    2.3590    0.9203 H   0  0  0  0  0  0  0  0  0  0  0  0
   -6.1506    3.4957   -0.4423 H   0  0  0  0  0  0  0  0  0  0  0  0
   -3.6487    4.1795    1.8148 H   0  0  0  0  0  0  0  0  0  0  0  0
   -1.3667    3.3453    1.7952 H   0  0  0  0  0  0  0  0  0  0  0  0
   -0.3060    0.1784    0.1641 H   0  0  0  0  0  0  0  0  0  0  0  0
    1.9264   -0.2629   -0.4209 H   0  0  0  0  0  0  0  0  0  0  0  0
    3.9695   -1.3858    0.3341 H   0  0  0  0  0  0  0  0  0  0  0  0
    5.6705   -0.5901    3.5562 H   0  0  0  0  0  0  0  0  0  0  0  0
    5.4666   -1.8188    2.3092 H   0  0  0  0  0  0  0  0  0  0  0  0
    8.3117    1.2210    2.0425 H   0  0  0  0  0  0  0  0  0  0  0  0
    6.8721    1.4911    3.0399 H   0  0  0  0  0  0  0  0  0  0  0  0
    5.7493    2.5930    1.3304 H   0  0  0  0  0  0  0  0  0  0  0  0
    7.4120    2.8808    0.7569 H   0  0  0  0  0  0  0  0  0  0  0  0
    6.2026    1.7491   -2.4179 H   0  0  0  0  0  0  0  0  0  0  0  0
    7.1449    2.9627   -1.5022 H   0  0  0  0  0  0  0  0  0  0  0  0
    4.9850    3.8268   -0.5037 H   0  0  0  0  0  0  0  0  0  0  0  0
    4.9774    3.8506   -2.3008 H   0  0  0  0  0  0  0  0  0  0  0  0
    3.0706    2.9959   -1.4292 H   0  0  0  0  0  0  0  0  0  0  0  0
    8.3137    0.7030   -0.5683 H   0  0  0  0  0  0  0  0  0  0  0  0
    7.0946   -0.1508   -1.5839 H   0  0  0  0  0  0  0  0  0  0  0  0
    6.3088   -1.4929    0.1404 H   0  0  0  0  0  0  0  0  0  0  0  0
    8.0488   -1.3947    0.4969 H   0  0  0  0  0  0  0  0  0  0  0  0
    4.4127    1.5195    3.4848 H   0  0  0  0  0  0  0  0  0  0  0  0
    2.3874    2.6631    2.7204 H   0  0  0  0  0  0  0  0  0  0  0  0
   -2.5266    0.1641   -0.8675 H   0  0  0  0  0  0  0  0  0  0  0  0
   -5.8900    1.2794   -1.4043 H   0  0  0  0  0  0  0  0  0  0  0  0
   -3.9573   -3.3411    0.7039 H   0  0  0  0  0  0  0  0  0  0  0  0
   -6.0018   -4.4081   -0.1678 H   0  0  0  0  0  0  0  0  0  0  0  0
   -9.0789   -1.2497   -1.5658 H   0  0  0  0  0  0  0  0  0  0  0  0
  -11.1638   -2.1802   -2.4938 H   0  0  0  0  0  0  0  0  0  0  0  0
  -11.2799   -4.5905   -3.0856 H   0  0  0  0  0  0  0  0  0  0  0  0
   -7.2887   -5.1715   -1.8706 H   0  0  0  0  0  0  0  0  0  0  0  0
  1  2  1  0
  2  3  2  0
  3  4  1  0
  4  5  2  0
  5  6  1  0
  6  7  1  0
  7  8  2  0
  7  9  1  0
  9 10  2  0
 10 11  1  0
 11 12  2  0
 12 13  1  0
 13 14  1  0
 14 15  1  0
 15 16  1  0
 16 17  1  0
 17 18  1  0
 18 19  1  0
 19 20  1  0
 17 21  1  0
 21 22  1  0
 12 23  1  0
 23 24  2  0
  5 25  1  0
 25 26  2  0
 26 27  1  0
 27 28  1  0
 28 29  2  0
 29 30  1  0
 30 31  2  0
 31 32  1  0
 32 33  1  0
 33 34  2  0
 34 35  1  0
 35 36  2  0
 36 37  1  0
 37 38  2  0
 32 39  2  0
 26  2  1  0
 39 28  1  0
 24  9  1  0
 38 33  1  0
 22 14  1  0
  1 40  1  0
  1 41  1  0
  1 42  1  0
  3 43  1  0
  4 44  1  0
  6 45  1  0
 10 46  1  0
 11 47  1  0
 13 48  1  0
 13 49  1  0
 15 50  1  0
 15 51  1  0
 16 52  1  0
 16 53  1  0
 18 54  1  0
 18 55  1  0
 19 56  1  0
 19 57  1  0
 20 58  1  0
 21 59  1  0
 21 60  1  0
 22 61  1  0
 22 62  1  0
 23 63  1  0
 24 64  1  0
 25 65  1  0
 27 66  1  0
 30 67  1  0
 31 68  1  0
 34 69  1  0
 35 70  1  0
 36 71  1  0
 38 72  1  0
M  END
>  <UniqueID>  (6) 
6

>  <SMILES>  (6) 
Cc1ccc(NC(=O)c2ccc(CN3CCN(CCO)CC3)cc2)cc1Nc1nccc(-c2cccnc2)n1

>  <Energy>  (6) 
107.53911818360537

>  <Genealogy>  (6) 
Cc1ccc(NC(=O)c2ccc(CN3CCN(CCO)CC3)cc2)cc1Nc1nccc(-c2cccnc2)n1 (3D coordinates assigned)
Cc1ccc(NC(=O)c2ccc(CN3CCN(CCO)CC3)cc2)cc1Nc1nccc(-c2cccnc2)n1 (nonaromatic ring conformer: 107.53911818360537 kcal/mol)

$$$$
